
Version, 8.1;

Timestep, 6;

ShadowCalculation,
	AverageOverDaysInFrequency,        !- Calculation Method
	30,        !- Calculation Frequency
	3000;    !- Maximum Figures in Shadow Overlap Calculation

ProgramControl,
	10; !- Number of Threads AllowedNumber

Building,
	unnamed.idf, !- Name
	0.0, !- North Axis {deg}
	City, !- Terrain
	0.040000000000000001, !- Loads Convergence Tolerance Value
	0.40000000000000002, !- Temperature Convergence Tolerance Value {deltaC}
	FullInteriorAndExteriorWithReflections, !- Solar Distribution or maybe FullExterior
	25, !- Maximum Number of Warmup Days
	6; !- Minimum Number of Warmup Days

HeatBalanceAlgorithm, ConductionTransferFunction;

SurfaceConvectionAlgorithm:Inside, TARP;

SurfaceConvectionAlgorithm:Outside, DOE-2;

Site:Location,
	New York J F Kennedy IntL Ar	USA,
	40.65,    !Latitude
	-73.80,   !Longitude
	-5.0, !Time Zone
	5.0;   !Elevation

SizingPeriod:WeatherFileConditionType,
	ExtremeSizingWinterExtreme,
	WinterExtreme,    !Period Selection
	Monday,   !Day of Week for Start Day
	Yes, !Use Weather File Daylight Davings Period
	Yes;   !Use WeatherFile Rain and Snow Indicators

SizingPeriod:WeatherFileConditionType,
	ExtremeSizingSummerExtreme,
	SummerExtreme,    !Period Selection
	Monday,   !Day of Week for Start Day
	Yes, !Use Weather File Daylight Davings Period
	Yes;   !Use WeatherFile Rain and Snow Indicators

SimulationControl,
	Yes,    !- Do Zone Sizing Calculation
	Yes,  !- Do System Sizing Calculation
	Yes,   !- Do Plant Sizing Calculation
	No,  !- Run Simulation for Sizing Periods
	Yes; !- Run Simulation for Weather File Run Periods

RunPeriod,
	customRun,    !- Name
	1,   !- Begin Month
	1,    !- Begin Day of Month
	1, !- End Month
	31,   !- End Day of Month
	UseWeatherFile,   !- Day of Week for Start Day
	Yes,              !- Use Weather File Holidays and Special Days
	Yes,              !- Use Weather File Daylight Saving Period
	No,               !- Apply Weekend Holiday Rule
	Yes,              !- Use Weather File Rain Indicators
	Yes;              !- Use Weather File Snow Indicators
ScheduleTypeLimits,
  ACTIVITYLEVEL 6,   !- name
  0,   !- - Lower Limit Value {BasedOnField A3}
  ,   !- - Upper Limit Value {BasedOnField A3}
  Continuous,   !- - Numeric Type
  activitylevel;   !- - Unit Type

ScheduleTypeLimits,
  TEMPERATURE 47,   !- name
  ,   !- - Lower Limit Value {BasedOnField A3}
  ,   !- - Upper Limit Value {BasedOnField A3}
  Continuous,   !- - Numeric Type
  temperature;   !- - Unit Type

ScheduleTypeLimits,
  TEMPERATURE 27,   !- name
  ,   !- - Lower Limit Value {BasedOnField A3}
  ,   !- - Upper Limit Value {BasedOnField A3}
  Continuous,   !- - Numeric Type
  temperature;   !- - Unit Type

ScheduleTypeLimits,
  TEMPERATURE 37,   !- name
  ,   !- - Lower Limit Value {BasedOnField A3}
  ,   !- - Upper Limit Value {BasedOnField A3}
  Continuous,   !- - Numeric Type
  temperature;   !- - Unit Type

ScheduleTypeLimits,
  TEMPERATURE 17,   !- name
  ,   !- - Lower Limit Value {BasedOnField A3}
  ,   !- - Upper Limit Value {BasedOnField A3}
  Continuous,   !- - Numeric Type
  temperature;   !- - Unit Type

ScheduleTypeLimits,
  ACTIVITYLEVEL 10,   !- name
  0,   !- - Lower Limit Value {BasedOnField A3}
  ,   !- - Upper Limit Value {BasedOnField A3}
  Continuous,   !- - Numeric Type
  activitylevel;   !- - Unit Type

ScheduleTypeLimits,
  TEMPERATURE 44,   !- name
  ,   !- - Lower Limit Value {BasedOnField A3}
  ,   !- - Upper Limit Value {BasedOnField A3}
  Continuous,   !- - Numeric Type
  temperature;   !- - Unit Type

ScheduleTypeLimits,
  TEMPERATURE 54,   !- name
  ,   !- - Lower Limit Value {BasedOnField A3}
  ,   !- - Upper Limit Value {BasedOnField A3}
  Continuous,   !- - Numeric Type
  temperature;   !- - Unit Type

ScheduleTypeLimits,
  TEMPERATURE 24,   !- name
  ,   !- - Lower Limit Value {BasedOnField A3}
  ,   !- - Upper Limit Value {BasedOnField A3}
  Continuous,   !- - Numeric Type
  temperature;   !- - Unit Type

ScheduleTypeLimits,
  ACTIVITYLEVEL 5,   !- name
  0,   !- - Lower Limit Value {BasedOnField A3}
  ,   !- - Upper Limit Value {BasedOnField A3}
  Continuous,   !- - Numeric Type
  activitylevel;   !- - Unit Type

ScheduleTypeLimits,
  ON/OFF,   !- name
  0,   !- - Lower Limit Value {BasedOnField A3}
  1,   !- - Upper Limit Value {BasedOnField A3}
  DISCRETE;   !- - Numeric Type

ScheduleTypeLimits,
  TEMPERATURE 14,   !- name
  ,   !- - Lower Limit Value {BasedOnField A3}
  ,   !- - Upper Limit Value {BasedOnField A3}
  Continuous,   !- - Numeric Type
  temperature;   !- - Unit Type

ScheduleTypeLimits,
  TEMPERATURE 34,   !- name
  ,   !- - Lower Limit Value {BasedOnField A3}
  ,   !- - Upper Limit Value {BasedOnField A3}
  Continuous,   !- - Numeric Type
  temperature;   !- - Unit Type

ScheduleTypeLimits,
  TEMPERATURE 45,   !- name
  ,   !- - Lower Limit Value {BasedOnField A3}
  ,   !- - Upper Limit Value {BasedOnField A3}
  Continuous,   !- - Numeric Type
  temperature;   !- - Unit Type

ScheduleTypeLimits,
  TEMPERATURE 55,   !- name
  ,   !- - Lower Limit Value {BasedOnField A3}
  ,   !- - Upper Limit Value {BasedOnField A3}
  Continuous,   !- - Numeric Type
  temperature;   !- - Unit Type

ScheduleTypeLimits,
  TEMPERATURE 25,   !- name
  ,   !- - Lower Limit Value {BasedOnField A3}
  ,   !- - Upper Limit Value {BasedOnField A3}
  Continuous,   !- - Numeric Type
  temperature;   !- - Unit Type

ScheduleTypeLimits,
  ACTIVITYLEVEL 12,   !- name
  0,   !- - Lower Limit Value {BasedOnField A3}
  ,   !- - Upper Limit Value {BasedOnField A3}
  Continuous,   !- - Numeric Type
  activitylevel;   !- - Unit Type

ScheduleTypeLimits,
  TEMPERATURE 35,   !- name
  ,   !- - Lower Limit Value {BasedOnField A3}
  ,   !- - Upper Limit Value {BasedOnField A3}
  Continuous,   !- - Numeric Type
  temperature;   !- - Unit Type

ScheduleTypeLimits,
  TEMPERATURE 15,   !- name
  ,   !- - Lower Limit Value {BasedOnField A3}
  ,   !- - Upper Limit Value {BasedOnField A3}
  Continuous,   !- - Numeric Type
  temperature;   !- - Unit Type

ScheduleTypeLimits,
  TEMPERATURE 42,   !- name
  ,   !- - Lower Limit Value {BasedOnField A3}
  ,   !- - Upper Limit Value {BasedOnField A3}
  Continuous,   !- - Numeric Type
  temperature;   !- - Unit Type

ScheduleTypeLimits,
  ACTIVITYLEVEL 7,   !- name
  0,   !- - Lower Limit Value {BasedOnField A3}
  ,   !- - Upper Limit Value {BasedOnField A3}
  Continuous,   !- - Numeric Type
  activitylevel;   !- - Unit Type

ScheduleTypeLimits,
  ACTIVITYLEVEL 8,   !- name
  0,   !- - Lower Limit Value {BasedOnField A3}
  ,   !- - Upper Limit Value {BasedOnField A3}
  Continuous,   !- - Numeric Type
  activitylevel;   !- - Unit Type

ScheduleTypeLimits,
  TEMPERATURE 22,   !- name
  ,   !- - Lower Limit Value {BasedOnField A3}
  ,   !- - Upper Limit Value {BasedOnField A3}
  Continuous,   !- - Numeric Type
  temperature;   !- - Unit Type

ScheduleTypeLimits,
  TEMPERATURE 32,   !- name
  ,   !- - Lower Limit Value {BasedOnField A3}
  ,   !- - Upper Limit Value {BasedOnField A3}
  Continuous,   !- - Numeric Type
  temperature;   !- - Unit Type

ScheduleTypeLimits,
  TEMPERATURE 12,   !- name
  ,   !- - Lower Limit Value {BasedOnField A3}
  ,   !- - Upper Limit Value {BasedOnField A3}
  Continuous,   !- - Numeric Type
  temperature;   !- - Unit Type

ScheduleTypeLimits,
  TEMPERATURE 52,   !- name
  ,   !- - Lower Limit Value {BasedOnField A3}
  ,   !- - Upper Limit Value {BasedOnField A3}
  Continuous,   !- - Numeric Type
  temperature;   !- - Unit Type

ScheduleTypeLimits,
  ACTIVITYLEVEL 14,   !- name
  0,   !- - Lower Limit Value {BasedOnField A3}
  ,   !- - Upper Limit Value {BasedOnField A3}
  Continuous,   !- - Numeric Type
  activitylevel;   !- - Unit Type

ScheduleTypeLimits,
  TEMPERATURE 43,   !- name
  ,   !- - Lower Limit Value {BasedOnField A3}
  ,   !- - Upper Limit Value {BasedOnField A3}
  Continuous,   !- - Numeric Type
  temperature;   !- - Unit Type

ScheduleTypeLimits,
  TEMPERATURE 53,   !- name
  ,   !- - Lower Limit Value {BasedOnField A3}
  ,   !- - Upper Limit Value {BasedOnField A3}
  Continuous,   !- - Numeric Type
  temperature;   !- - Unit Type

ScheduleTypeLimits,
  TEMPERATURE 23,   !- name
  ,   !- - Lower Limit Value {BasedOnField A3}
  ,   !- - Upper Limit Value {BasedOnField A3}
  Continuous,   !- - Numeric Type
  temperature;   !- - Unit Type

ScheduleTypeLimits,
  ACTIVITYLEVEL 11,   !- name
  0,   !- - Lower Limit Value {BasedOnField A3}
  ,   !- - Upper Limit Value {BasedOnField A3}
  Continuous,   !- - Numeric Type
  activitylevel;   !- - Unit Type

ScheduleTypeLimits,
  ACTIVITYLEVEL 2,   !- name
  0,   !- - Lower Limit Value {BasedOnField A3}
  ,   !- - Upper Limit Value {BasedOnField A3}
  Continuous,   !- - Numeric Type
  activitylevel;   !- - Unit Type

ScheduleTypeLimits,
  FRACTIONAL,   !- name
  0,   !- - Lower Limit Value {BasedOnField A3}
  1,   !- - Upper Limit Value {BasedOnField A3}
  Continuous;   !- - Numeric Type

ScheduleTypeLimits,
  FRACTION,   !- name
  0,   !- - Lower Limit Value {BasedOnField A3}
  1,   !- - Upper Limit Value {BasedOnField A3}
  CONTINUOUS;   !- - Numeric Type

ScheduleTypeLimits,
  TEMPERATURE 13,   !- name
  ,   !- - Lower Limit Value {BasedOnField A3}
  ,   !- - Upper Limit Value {BasedOnField A3}
  Continuous,   !- - Numeric Type
  temperature;   !- - Unit Type

ScheduleTypeLimits,
  TEMPERATURE 2,   !- name
  ,   !- - Lower Limit Value {BasedOnField A3}
  ,   !- - Upper Limit Value {BasedOnField A3}
  Continuous,   !- - Numeric Type
  temperature;   !- - Unit Type

ScheduleTypeLimits,
  TEMPERATURE 1,   !- name
  ,   !- - Lower Limit Value {BasedOnField A3}
  ,   !- - Upper Limit Value {BasedOnField A3}
  Continuous,   !- - Numeric Type
  temperature;   !- - Unit Type

ScheduleTypeLimits,
  TEMPERATURE 3,   !- name
  ,   !- - Lower Limit Value {BasedOnField A3}
  ,   !- - Upper Limit Value {BasedOnField A3}
  Continuous,   !- - Numeric Type
  temperature;   !- - Unit Type

ScheduleTypeLimits,
  TEMPERATURE 33,   !- name
  ,   !- - Lower Limit Value {BasedOnField A3}
  ,   !- - Upper Limit Value {BasedOnField A3}
  Continuous,   !- - Numeric Type
  temperature;   !- - Unit Type

ScheduleTypeLimits,
  ACTIVITYLEVEL,   !- name
  0,   !- - Lower Limit Value {BasedOnField A3}
  ,   !- - Upper Limit Value {BasedOnField A3}
  Continuous,   !- - Numeric Type
  activitylevel;   !- - Unit Type

ScheduleTypeLimits,
  TEMPERATURE 4,   !- name
  ,   !- - Lower Limit Value {BasedOnField A3}
  ,   !- - Upper Limit Value {BasedOnField A3}
  Continuous,   !- - Numeric Type
  temperature;   !- - Unit Type

ScheduleTypeLimits,
  TEMPERATURE 48,   !- name
  ,   !- - Lower Limit Value {BasedOnField A3}
  ,   !- - Upper Limit Value {BasedOnField A3}
  Continuous,   !- - Numeric Type
  temperature;   !- - Unit Type

ScheduleTypeLimits,
  TEMPERATURE 5,   !- name
  ,   !- - Lower Limit Value {BasedOnField A3}
  ,   !- - Upper Limit Value {BasedOnField A3}
  Continuous,   !- - Numeric Type
  temperature;   !- - Unit Type

ScheduleTypeLimits,
  TEMPERATURE 40,   !- name
  ,   !- - Lower Limit Value {BasedOnField A3}
  ,   !- - Upper Limit Value {BasedOnField A3}
  Continuous,   !- - Numeric Type
  temperature;   !- - Unit Type

ScheduleTypeLimits,
  TEMPERATURE 38,   !- name
  ,   !- - Lower Limit Value {BasedOnField A3}
  ,   !- - Upper Limit Value {BasedOnField A3}
  Continuous,   !- - Numeric Type
  temperature;   !- - Unit Type

ScheduleTypeLimits,
  TEMPERATURE 20,   !- name
  ,   !- - Lower Limit Value {BasedOnField A3}
  ,   !- - Upper Limit Value {BasedOnField A3}
  Continuous,   !- - Numeric Type
  temperature;   !- - Unit Type

ScheduleTypeLimits,
  TEMPERATURE 18,   !- name
  ,   !- - Lower Limit Value {BasedOnField A3}
  ,   !- - Upper Limit Value {BasedOnField A3}
  Continuous,   !- - Numeric Type
  temperature;   !- - Unit Type

ScheduleTypeLimits,
  TEMPERATURE 30,   !- name
  ,   !- - Lower Limit Value {BasedOnField A3}
  ,   !- - Upper Limit Value {BasedOnField A3}
  Continuous,   !- - Numeric Type
  temperature;   !- - Unit Type

ScheduleTypeLimits,
  TEMPERATURE 10,   !- name
  ,   !- - Lower Limit Value {BasedOnField A3}
  ,   !- - Upper Limit Value {BasedOnField A3}
  Continuous,   !- - Numeric Type
  temperature;   !- - Unit Type

ScheduleTypeLimits,
  TEMPERATURE 50,   !- name
  ,   !- - Lower Limit Value {BasedOnField A3}
  ,   !- - Upper Limit Value {BasedOnField A3}
  Continuous,   !- - Numeric Type
  temperature;   !- - Unit Type

ScheduleTypeLimits,
  TEMPERATURE 6,   !- name
  ,   !- - Lower Limit Value {BasedOnField A3}
  ,   !- - Upper Limit Value {BasedOnField A3}
  Continuous,   !- - Numeric Type
  temperature;   !- - Unit Type

ScheduleTypeLimits,
  TEMPERATURE 7,   !- name
  ,   !- - Lower Limit Value {BasedOnField A3}
  ,   !- - Upper Limit Value {BasedOnField A3}
  Continuous,   !- - Numeric Type
  temperature;   !- - Unit Type

ScheduleTypeLimits,
  ACTIVITYLEVEL 13,   !- name
  0,   !- - Lower Limit Value {BasedOnField A3}
  ,   !- - Upper Limit Value {BasedOnField A3}
  Continuous,   !- - Numeric Type
  activitylevel;   !- - Unit Type

ScheduleTypeLimits,
  ACTIVITYLEVEL 1,   !- name
  0,   !- - Lower Limit Value {BasedOnField A3}
  ,   !- - Upper Limit Value {BasedOnField A3}
  Continuous,   !- - Numeric Type
  activitylevel;   !- - Unit Type

ScheduleTypeLimits,
  TEMPERATURE 8,   !- name
  ,   !- - Lower Limit Value {BasedOnField A3}
  ,   !- - Upper Limit Value {BasedOnField A3}
  Continuous,   !- - Numeric Type
  temperature;   !- - Unit Type

ScheduleTypeLimits,
  TEMPERATURE 9,   !- name
  ,   !- - Lower Limit Value {BasedOnField A3}
  ,   !- - Upper Limit Value {BasedOnField A3}
  Continuous,   !- - Numeric Type
  temperature;   !- - Unit Type

ScheduleTypeLimits,
  TEMPERATURE 49,   !- name
  ,   !- - Lower Limit Value {BasedOnField A3}
  ,   !- - Upper Limit Value {BasedOnField A3}
  Continuous,   !- - Numeric Type
  temperature;   !- - Unit Type

ScheduleTypeLimits,
  TEMPERATURE 59,   !- name
  ,   !- - Lower Limit Value {BasedOnField A3}
  ,   !- - Upper Limit Value {BasedOnField A3}
  Continuous,   !- - Numeric Type
  temperature;   !- - Unit Type

ScheduleTypeLimits,
  TEMPERATURE 29,   !- name
  ,   !- - Lower Limit Value {BasedOnField A3}
  ,   !- - Upper Limit Value {BasedOnField A3}
  Continuous,   !- - Numeric Type
  temperature;   !- - Unit Type

ScheduleTypeLimits,
  ACTIVITYLEVEL 9,   !- name
  0,   !- - Lower Limit Value {BasedOnField A3}
  ,   !- - Upper Limit Value {BasedOnField A3}
  Continuous,   !- - Numeric Type
  activitylevel;   !- - Unit Type

ScheduleTypeLimits,
  ACTIVITYLEVEL 4,   !- name
  0,   !- - Lower Limit Value {BasedOnField A3}
  ,   !- - Upper Limit Value {BasedOnField A3}
  Continuous,   !- - Numeric Type
  activitylevel;   !- - Unit Type

ScheduleTypeLimits,
  TEMPERATURE 19,   !- name
  ,   !- - Lower Limit Value {BasedOnField A3}
  ,   !- - Upper Limit Value {BasedOnField A3}
  Continuous,   !- - Numeric Type
  temperature;   !- - Unit Type

ScheduleTypeLimits,
  TEMPERATURE 21,   !- name
  ,   !- - Lower Limit Value {BasedOnField A3}
  ,   !- - Upper Limit Value {BasedOnField A3}
  Continuous,   !- - Numeric Type
  temperature;   !- - Unit Type

ScheduleTypeLimits,
  TEMPERATURE 11,   !- name
  ,   !- - Lower Limit Value {BasedOnField A3}
  ,   !- - Upper Limit Value {BasedOnField A3}
  Continuous,   !- - Numeric Type
  temperature;   !- - Unit Type

ScheduleTypeLimits,
  TEMPERATURE 31,   !- name
  ,   !- - Lower Limit Value {BasedOnField A3}
  ,   !- - Upper Limit Value {BasedOnField A3}
  Continuous,   !- - Numeric Type
  temperature;   !- - Unit Type

ScheduleTypeLimits,
  TEMPERATURE 41,   !- name
  ,   !- - Lower Limit Value {BasedOnField A3}
  ,   !- - Upper Limit Value {BasedOnField A3}
  Continuous,   !- - Numeric Type
  temperature;   !- - Unit Type

ScheduleTypeLimits,
  TEMPERATURE 51,   !- name
  ,   !- - Lower Limit Value {BasedOnField A3}
  ,   !- - Upper Limit Value {BasedOnField A3}
  Continuous,   !- - Numeric Type
  temperature;   !- - Unit Type

ScheduleTypeLimits,
  ACTIVITYLEVEL 15,   !- name
  0,   !- - Lower Limit Value {BasedOnField A3}
  ,   !- - Upper Limit Value {BasedOnField A3}
  Continuous,   !- - Numeric Type
  activitylevel;   !- - Unit Type

ScheduleTypeLimits,
  TEMPERATURE 46,   !- name
  ,   !- - Lower Limit Value {BasedOnField A3}
  ,   !- - Upper Limit Value {BasedOnField A3}
  Continuous,   !- - Numeric Type
  temperature;   !- - Unit Type

ScheduleTypeLimits,
  TEMPERATURE 56,   !- name
  ,   !- - Lower Limit Value {BasedOnField A3}
  ,   !- - Upper Limit Value {BasedOnField A3}
  Continuous,   !- - Numeric Type
  temperature;   !- - Unit Type

ScheduleTypeLimits,
  TEMPERATURE 26,   !- name
  ,   !- - Lower Limit Value {BasedOnField A3}
  ,   !- - Upper Limit Value {BasedOnField A3}
  Continuous,   !- - Numeric Type
  temperature;   !- - Unit Type

ScheduleTypeLimits,
  TEMPERATURE 36,   !- name
  ,   !- - Lower Limit Value {BasedOnField A3}
  ,   !- - Upper Limit Value {BasedOnField A3}
  Continuous,   !- - Numeric Type
  temperature;   !- - Unit Type

ScheduleTypeLimits,
  ACTIVITYLEVEL 3,   !- name
  0,   !- - Lower Limit Value {BasedOnField A3}
  ,   !- - Upper Limit Value {BasedOnField A3}
  Continuous,   !- - Numeric Type
  activitylevel;   !- - Unit Type

ScheduleTypeLimits,
  TEMPERATURE 16,   !- name
  ,   !- - Lower Limit Value {BasedOnField A3}
  ,   !- - Upper Limit Value {BasedOnField A3}
  Continuous,   !- - Numeric Type
  temperature;   !- - Unit Type


GlobalGeometryRules,
	LowerLeftCorner,         !- Starting Vertex Position
	CounterClockWise,        !- Vertex Entry Direction
	Absolute;                !- Coordinate System

Zone,
	zone_0,
	0,	!-Direction of Relative North {deg}
	0.0,	!- X Origin {m}
	0.0,	!- Y Origin {m}
	0.0,	!- Z Origin {m}
	1;	!- Type

BuildingSurface:Detailed,
	zone_0_Srf_0,	!- Name
	WALL,	!- Surface Type
	Exterior Wall,	!- Construction Name
	zone_0,	!- Zone Name
	Outdoors,	!- Outside Boundary Condition
	,	!- Outside Boundary Condition Object
	SunExposed,	!- Sun Exposure
	WindExposed,	!- Wind Exposure
	autocalculate,	!- View Factor to Ground
	4,	!- Number of Vertices
	10.595067977905273,
	22.643783569335938,
	7.0,
	10.467892646789551,
	21.792303085327148,
	7.0,
	10.467892646789551,
	21.792303085327148,
	7.5,
	10.595067977905273,
	22.643783569335938,
	7.5;


FenestrationSurface:Detailed,
	zone_0_Srf_0_glz_0,	!- Name
	WINDOW,	!- Surface Type
	Exterior Window,	!- Construction Name
	zone_0_Srf_0,	!- Surface Name
	,	!- Outside Boundary Condition Object
	autocalculate,	!- View Factor to Ground
	,	!- Shading Control Name
	,	!- Frame and Divider Name
	1,	!- Multiplier
	4,	!- Number of Vertices
	10.556107521057129,
	22.382932662963867,
	7.153175354003906,
	10.506853103637695,
	22.053153991699219,
	7.153175354003906,
	10.506853103637695,
	22.053153991699219,
	7.346824645996094,
	10.556107521057129,
	22.382932662963867,
	7.346824645996094;


BuildingSurface:Detailed,
	zone_0_Srf_1,	!- Name
	WALL,	!- Surface Type
	Exterior Wall,	!- Construction Name
	zone_0,	!- Zone Name
	Outdoors,	!- Outside Boundary Condition
	,	!- Outside Boundary Condition Object
	SunExposed,	!- Sun Exposure
	WindExposed,	!- Wind Exposure
	autocalculate,	!- View Factor to Ground
	4,	!- Number of Vertices
	11.993996620178223,
	32.010078430175781,
	7.0,
	10.595067977905273,
	22.643783569335938,
	7.0,
	10.595067977905273,
	22.643783569335938,
	7.5,
	11.230944633483887,
	26.901189804077148,
	10.0;


FenestrationSurface:Detailed,
	zone_0_Srf_1_glz_0,	!- Name
	WINDOW,	!- Surface Type
	Exterior Window,	!- Construction Name
	zone_0_Srf_1,	!- Surface Name
	,	!- Outside Boundary Condition Object
	autocalculate,	!- View Factor to Ground
	,	!- Shading Control Name
	,	!- Frame and Divider Name
	1,	!- Multiplier
	3,	!- Number of Vertices
	11.5323,
	28.9190,
	7.61989,
	10.9905,
	25.2915,
	7.61989,
	10.9905,
	25.2915,
	7.81354;


FenestrationSurface:Detailed,
	zone_0_Srf_1_glz_1,	!- Name
	WINDOW,	!- Surface Type
	Exterior Window,	!- Construction Name
	zone_0_Srf_1,	!- Surface Name
	,	!- Outside Boundary Condition Object
	autocalculate,	!- View Factor to Ground
	,	!- Shading Control Name
	,	!- Frame and Divider Name
	1,	!- Multiplier
	3,	!- Number of Vertices
	10.9905,
	25.2915,
	7.81354,
	11.2368,
	26.9404,
	8.78179,
	11.5323,
	28.9190,
	7.61989;


BuildingSurface:Detailed,
	zone_0_Srf_2,	!- Name
	ROOF,	!- Surface Type
	Exterior Roof,	!- Construction Name
	zone_0,	!- Zone Name
	Outdoors,	!- Outside Boundary Condition
	,	!- Outside Boundary Condition Object
	SunExposed,	!- Sun Exposure
	WindExposed,	!- Wind Exposure
	autocalculate,	!- View Factor to Ground
	4,	!- Number of Vertices
	12.455266952514648,
	21.495473861694336,
	8.5,
	14.442641258239746,
	21.198642730712891,
	7.5,
	14.569816589355469,
	22.050125122070312,
	7.5,
	12.836792945861816,
	24.049917221069336,
	8.5;


BuildingSurface:Detailed,
	zone_0_Srf_3,	!- Name
	WALL,	!- Surface Type
	Interior Wall,	!- Construction Name
	zone_0,	!- Zone Name
	SURFACE,	!- Outside Boundary Condition
	zone_1_Srf_2,	!- Outside Boundary Condition Object
	NoSun,	!- Sun Exposure
	NoWind,	!- Wind Exposure
	autocalculate,	!- View Factor to Ground
	5,	!- Number of Vertices
	10.467892646789551,
	21.792303085327148,
	7.0,
	14.442641258239746,
	21.198642730712891,
	7.0,
	14.442641258239746,
	21.198642730712891,
	7.5,
	12.455266952514648,
	21.495473861694336,
	8.5,
	10.467892646789551,
	21.792303085327148,
	7.5;


BuildingSurface:Detailed,
	zone_0_Srf_4,	!- Name
	ROOF,	!- Surface Type
	Exterior Roof,	!- Construction Name
	zone_0,	!- Zone Name
	Outdoors,	!- Outside Boundary Condition
	,	!- Outside Boundary Condition Object
	SunExposed,	!- Sun Exposure
	WindExposed,	!- Wind Exposure
	autocalculate,	!- View Factor to Ground
	4,	!- Number of Vertices
	10.467892646789551,
	21.792303085327148,
	7.5,
	12.455266952514648,
	21.495473861694336,
	8.5,
	12.836792945861816,
	24.049917221069336,
	8.5,
	10.595067977905273,
	22.643783569335938,
	7.5;


BuildingSurface:Detailed,
	zone_0_Srf_5,	!- Name
	WALL,	!- Surface Type
	Exterior Wall,	!- Construction Name
	zone_0,	!- Zone Name
	Outdoors,	!- Outside Boundary Condition
	,	!- Outside Boundary Condition Object
	SunExposed,	!- Sun Exposure
	WindExposed,	!- Wind Exposure
	autocalculate,	!- View Factor to Ground
	3,	!- Number of Vertices
	14.442641258239746,
	21.198642730712891,
	7.0,
	14.569816589355469,
	22.050125122070312,
	7.5,
	14.442641258239746,
	21.198642730712891,
	7.5;


FenestrationSurface:Detailed,
	zone_0_Srf_5_glz_0,	!- Name
	WINDOW,	!- Surface Type
	Exterior Window,	!- Construction Name
	zone_0_Srf_5,	!- Surface Name
	,	!- Outside Boundary Condition Object
	autocalculate,	!- View Factor to Ground
	,	!- Shading Control Name
	,	!- Frame and Divider Name
	1,	!- Multiplier
	3,	!- Number of Vertices
	14.46861457824707,
	21.37254524230957,
	7.2042341232299805,
	14.51786994934082,
	21.702322006225586,
	7.39788293838501,
	14.46861457824707,
	21.37254524230957,
	7.39788293838501;


BuildingSurface:Detailed,
	zone_0_Srf_6,	!- Name
	ROOF,	!- Surface Type
	Exterior Roof,	!- Construction Name
	zone_0,	!- Zone Name
	Outdoors,	!- Outside Boundary Condition
	,	!- Outside Boundary Condition Object
	SunExposed,	!- Sun Exposure
	WindExposed,	!- Wind Exposure
	autocalculate,	!- View Factor to Ground
	8,	!- Number of Vertices
	11.230944633483887,
	26.901189804077148,
	10.0,
	18.154150009155273,
	25.867155075073242,
	10.0,
	17.391098022460938,
	20.758268356323242,
	7.0,
	14.442641258239746,
	21.198642730712891,
	7.0,
	14.569816589355469,
	22.050125122070312,
	7.5,
	12.836792945861816,
	24.049917221069336,
	8.5,
	10.595067977905273,
	22.643783569335938,
	7.5,
	10.658656120300293,
	23.069524765014648,
	7.75;


BuildingSurface:Detailed,
	zone_0_Srf_7,	!- Name
	ROOF,	!- Surface Type
	Exterior Roof,	!- Construction Name
	zone_0,	!- Zone Name
	Outdoors,	!- Outside Boundary Condition
	,	!- Outside Boundary Condition Object
	SunExposed,	!- Sun Exposure
	WindExposed,	!- Wind Exposure
	autocalculate,	!- View Factor to Ground
	4,	!- Number of Vertices
	18.154150009155273,
	25.867155075073242,
	10.0,
	18.917201995849609,
	30.976041793823242,
	7.0,
	11.993996620178223,
	32.010078430175781,
	7.0,
	11.230944633483887,
	26.901189804077148,
	10.0;


BuildingSurface:Detailed,
	zone_0_Srf_8,	!- Name
	WALL,	!- Surface Type
	Exterior Wall,	!- Construction Name
	zone_0,	!- Zone Name
	Outdoors,	!- Outside Boundary Condition
	,	!- Outside Boundary Condition Object
	SunExposed,	!- Sun Exposure
	WindExposed,	!- Wind Exposure
	autocalculate,	!- View Factor to Ground
	3,	!- Number of Vertices
	17.391098022460938,
	20.758268356323242,
	7.0,
	18.917201995849609,
	30.976041793823242,
	7.0,
	18.154150009155273,
	25.867155075073242,
	10.0;


FenestrationSurface:Detailed,
	zone_0_Srf_8_glz_0,	!- Name
	WINDOW,	!- Surface Type
	Exterior Window,	!- Construction Name
	zone_0_Srf_8,	!- Surface Name
	,	!- Outside Boundary Condition Object
	autocalculate,	!- View Factor to Ground
	,	!- Shading Control Name
	,	!- Frame and Divider Name
	1,	!- Multiplier
	3,	!- Number of Vertices
	17.858621597290039,
	23.888492584228516,
	7.612701892852783,
	18.449678421020508,
	27.8458194732666,
	7.612701892852783,
	18.154150009155273,
	25.867155075073242,
	8.774596214294434;


BuildingSurface:Detailed,
	zone_0_Srf_9,	!- Name
	FLOOR,	!- Surface Type
	Interior Floor,	!- Construction Name
	zone_0,	!- Zone Name
	SURFACE,	!- Outside Boundary Condition
	zone_14_Srf_0,	!- Outside Boundary Condition Object
	NoSun,	!- Sun Exposure
	NoWind,	!- Wind Exposure
	autocalculate,	!- View Factor to Ground
	4,	!- Number of Vertices
	14.442641258239746,
	21.198642730712891,
	7.0,
	14.786991119384766,
	23.504182815551758,
	7.0,
	17.735448837280273,
	23.063808441162109,
	7.0,
	17.391098022460938,
	20.758268356323242,
	7.0;


BuildingSurface:Detailed,
	zone_0_Srf_10,	!- Name
	FLOOR,	!- Surface Type
	Interior Floor,	!- Construction Name
	zone_0,	!- Zone Name
	SURFACE,	!- Outside Boundary Condition
	zone_7_Srf_6,	!- Outside Boundary Condition Object
	NoSun,	!- Sun Exposure
	NoWind,	!- Wind Exposure
	autocalculate,	!- View Factor to Ground
	4,	!- Number of Vertices
	11.403120040893555,
	28.053958892822266,
	7.0,
	11.993996620178223,
	32.010078430175781,
	7.0,
	18.917201995849609,
	30.976041793823242,
	7.0,
	18.326324462890625,
	27.019924163818359,
	7.0;


BuildingSurface:Detailed,
	zone_0_Srf_11,	!- Name
	FLOOR,	!- Surface Type
	Interior Floor,	!- Construction Name
	zone_0,	!- Zone Name
	SURFACE,	!- Outside Boundary Condition
	zone_9_Srf_6,	!- Outside Boundary Condition Object
	NoSun,	!- Sun Exposure
	NoWind,	!- Wind Exposure
	autocalculate,	!- View Factor to Ground
	4,	!- Number of Vertices
	14.273845672607422,
	23.58082389831543,
	7.0,
	14.86472225189209,
	27.536941528320312,
	7.0,
	18.326324462890625,
	27.019924163818359,
	7.0,
	17.735448837280273,
	23.063808441162109,
	7.0;


BuildingSurface:Detailed,
	zone_0_Srf_12,	!- Name
	FLOOR,	!- Surface Type
	Interior Floor,	!- Construction Name
	zone_0,	!- Zone Name
	SURFACE,	!- Outside Boundary Condition
	zone_6_Srf_6,	!- Outside Boundary Condition Object
	NoSun,	!- Sun Exposure
	NoWind,	!- Wind Exposure
	autocalculate,	!- View Factor to Ground
	4,	!- Number of Vertices
	10.467892646789551,
	21.792303085327148,
	7.0,
	10.812243461608887,
	24.097841262817383,
	7.0,
	14.786991119384766,
	23.504182815551758,
	7.0,
	14.442641258239746,
	21.198642730712891,
	7.0;


BuildingSurface:Detailed,
	zone_0_Srf_13,	!- Name
	FLOOR,	!- Surface Type
	Interior Floor,	!- Construction Name
	zone_0,	!- Zone Name
	SURFACE,	!- Outside Boundary Condition
	zone_8_Srf_6,	!- Outside Boundary Condition Object
	NoSun,	!- Sun Exposure
	NoWind,	!- Wind Exposure
	autocalculate,	!- View Factor to Ground
	4,	!- Number of Vertices
	10.812243461608887,
	24.097841262817383,
	7.0,
	11.403120040893555,
	28.053958892822266,
	7.0,
	14.86472225189209,
	27.536941528320312,
	7.0,
	14.273845672607422,
	23.58082389831543,
	7.0;


Zone,
	zone_1,
	0,	!-Direction of Relative North {deg}
	0.0,	!- X Origin {m}
	0.0,	!- Y Origin {m}
	0.0,	!- Z Origin {m}
	1;	!- Type

BuildingSurface:Detailed,
	zone_1_Srf_0,	!- Name
	WALL,	!- Surface Type
	Exterior Wall,	!- Construction Name
	zone_1,	!- Zone Name
	Outdoors,	!- Outside Boundary Condition
	,	!- Outside Boundary Condition Object
	SunExposed,	!- Sun Exposure
	WindExposed,	!- Wind Exposure
	autocalculate,	!- View Factor to Ground
	6,	!- Number of Vertices
	14.06856632232666,
	18.6940860748291,
	4.0,
	14.06856632232666,
	18.6940860748291,
	7.0,
	14.442641258239746,
	21.198642730712891,
	7.0,
	14.442641258239746,
	21.198642730712891,
	7.5,
	13.710273742675781,
	16.295198440551758,
	7.5,
	13.710273742675781,
	16.295198440551758,
	4.0;


FenestrationSurface:Detailed,
	zone_1_Srf_0_glz_0,	!- Name
	WINDOW,	!- Surface Type
	Exterior Window,	!- Construction Name
	zone_1_Srf_0,	!- Surface Name
	,	!- Outside Boundary Condition Object