
Version, 8.1;

Timestep, 6;

ShadowCalculation,
	AverageOverDaysInFrequency,        !- Calculation Method
	30,        !- Calculation Frequency
	3000;    !- Maximum Figures in Shadow Overlap Calculation

ProgramControl,
	10; !- Number of Threads AllowedNumber

Building,
	unnamed.idf, !- Name
	0.0, !- North Axis {deg}
	City, !- Terrain
	0.040000000000000001, !- Loads Convergence Tolerance Value
	0.40000000000000002, !- Temperature Convergence Tolerance Value {deltaC}
	FullInteriorAndExteriorWithReflections, !- Solar Distribution or maybe FullExterior
	25, !- Maximum Number of Warmup Days
	6; !- Minimum Number of Warmup Days

HeatBalanceAlgorithm, ConductionTransferFunction;

SurfaceConvectionAlgorithm:Inside, TARP;

SurfaceConvectionAlgorithm:Outside, DOE-2;

Site:Location,
	New York J F Kennedy IntL Ar	USA,
	40.65,    !Latitude
	-73.80,   !Longitude
	-5.0, !Time Zone
	5.0;   !Elevation

SizingPeriod:WeatherFileConditionType,
	ExtremeSizingWinterExtreme,
	WinterExtreme,    !Period Selection
	Monday,   !Day of Week for Start Day
	Yes, !Use Weather File Daylight Davings Period
	Yes;   !Use WeatherFile Rain and Snow Indicators

SizingPeriod:WeatherFileConditionType,
	ExtremeSizingSummerExtreme,
	SummerExtreme,    !Period Selection
	Monday,   !Day of Week for Start Day
	Yes, !Use Weather File Daylight Davings Period
	Yes;   !Use WeatherFile Rain and Snow Indicators

SimulationControl,
	Yes,    !- Do Zone Sizing Calculation
	Yes,  !- Do System Sizing Calculation
	Yes,   !- Do Plant Sizing Calculation
	No,  !- Run Simulation for Sizing Periods
	Yes; !- Run Simulation for Weather File Run Periods

RunPeriod,
	customRun,    !- Name
	1,   !- Begin Month
	1,    !- Begin Day of Month
	1, !- End Month
	31,   !- End Day of Month
	UseWeatherFile,   !- Day of Week for Start Day
	Yes,              !- Use Weather File Holidays and Special Days
	Yes,              !- Use Weather File Daylight Saving Period
	No,               !- Apply Weekend Holiday Rule
	Yes,              !- Use Weather File Rain Indicators
	Yes;              !- Use Weather File Snow Indicators
ScheduleTypeLimits,
  ACTIVITYLEVEL 6,   !- name
  0,   !- - Lower Limit Value {BasedOnField A3}
  ,   !- - Upper Limit Value {BasedOnField A3}
  Continuous,   !- - Numeric Type
  activitylevel;   !- - Unit Type

ScheduleTypeLimits,
  TEMPERATURE 47,   !- name
  ,   !- - Lower Limit Value {BasedOnField A3}
  ,   !- - Upper Limit Value {BasedOnField A3}
  Continuous,   !- - Numeric Type
  temperature;   !- - Unit Type

ScheduleTypeLimits,
  TEMPERATURE 27,   !- name
  ,   !- - Lower Limit Value {BasedOnField A3}
  ,   !- - Upper Limit Value {BasedOnField A3}
  Continuous,   !- - Numeric Type
  temperature;   !- - Unit Type

ScheduleTypeLimits,
  TEMPERATURE 37,   !- name
  ,   !- - Lower Limit Value {BasedOnField A3}
  ,   !- - Upper Limit Value {BasedOnField A3}
  Continuous,   !- - Numeric Type
  temperature;   !- - Unit Type

ScheduleTypeLimits,
  TEMPERATURE 17,   !- name
  ,   !- - Lower Limit Value {BasedOnField A3}
  ,   !- - Upper Limit Value {BasedOnField A3}
  Continuous,   !- - Numeric Type
  temperature;   !- - Unit Type

ScheduleTypeLimits,
  ACTIVITYLEVEL 10,   !- name
  0,   !- - Lower Limit Value {BasedOnField A3}
  ,   !- - Upper Limit Value {BasedOnField A3}
  Continuous,   !- - Numeric Type
  activitylevel;   !- - Unit Type

ScheduleTypeLimits,
  TEMPERATURE 44,   !- name
  ,   !- - Lower Limit Value {BasedOnField A3}
  ,   !- - Upper Limit Value {BasedOnField A3}
  Continuous,   !- - Numeric Type
  temperature;   !- - Unit Type

ScheduleTypeLimits,
  TEMPERATURE 54,   !- name
  ,   !- - Lower Limit Value {BasedOnField A3}
  ,   !- - Upper Limit Value {BasedOnField A3}
  Continuous,   !- - Numeric Type
  temperature;   !- - Unit Type

ScheduleTypeLimits,
  TEMPERATURE 24,   !- name
  ,   !- - Lower Limit Value {BasedOnField A3}
  ,   !- - Upper Limit Value {BasedOnField A3}
  Continuous,   !- - Numeric Type
  temperature;   !- - Unit Type

ScheduleTypeLimits,
  ACTIVITYLEVEL 5,   !- name
  0,   !- - Lower Limit Value {BasedOnField A3}
  ,   !- - Upper Limit Value {BasedOnField A3}
  Continuous,   !- - Numeric Type
  activitylevel;   !- - Unit Type

ScheduleTypeLimits,
  ON/OFF,   !- name
  0,   !- - Lower Limit Value {BasedOnField A3}
  1,   !- - Upper Limit Value {BasedOnField A3}
  DISCRETE;   !- - Numeric Type

ScheduleTypeLimits,
  TEMPERATURE 14,   !- name
  ,   !- - Lower Limit Value {BasedOnField A3}
  ,   !- - Upper Limit Value {BasedOnField A3}
  Continuous,   !- - Numeric Type
  temperature;   !- - Unit Type

ScheduleTypeLimits,
  TEMPERATURE 34,   !- name
  ,   !- - Lower Limit Value {BasedOnField A3}
  ,   !- - Upper Limit Value {BasedOnField A3}
  Continuous,   !- - Numeric Type
  temperature;   !- - Unit Type

ScheduleTypeLimits,
  TEMPERATURE 45,   !- name
  ,   !- - Lower Limit Value {BasedOnField A3}
  ,   !- - Upper Limit Value {BasedOnField A3}
  Continuous,   !- - Numeric Type
  temperature;   !- - Unit Type

ScheduleTypeLimits,
  TEMPERATURE 55,   !- name
  ,   !- - Lower Limit Value {BasedOnField A3}
  ,   !- - Upper Limit Value {BasedOnField A3}
  Continuous,   !- - Numeric Type
  temperature;   !- - Unit Type

ScheduleTypeLimits,
  TEMPERATURE 25,   !- name
  ,   !- - Lower Limit Value {BasedOnField A3}
  ,   !- - Upper Limit Value {BasedOnField A3}
  Continuous,   !- - Numeric Type
  temperature;   !- - Unit Type

ScheduleTypeLimits,
  ACTIVITYLEVEL 12,   !- name
  0,   !- - Lower Limit Value {BasedOnField A3}
  ,   !- - Upper Limit Value {BasedOnField A3}
  Continuous,   !- - Numeric Type
  activitylevel;   !- - Unit Type

ScheduleTypeLimits,
  TEMPERATURE 35,   !- name
  ,   !- - Lower Limit Value {BasedOnField A3}
  ,   !- - Upper Limit Value {BasedOnField A3}
  Continuous,   !- - Numeric Type
  temperature;   !- - Unit Type

ScheduleTypeLimits,
  TEMPERATURE 15,   !- name
  ,   !- - Lower Limit Value {BasedOnField A3}
  ,   !- - Upper Limit Value {BasedOnField A3}
  Continuous,   !- - Numeric Type
  temperature;   !- - Unit Type

ScheduleTypeLimits,
  TEMPERATURE 42,   !- name
  ,   !- - Lower Limit Value {BasedOnField A3}
  ,   !- - Upper Limit Value {BasedOnField A3}
  Continuous,   !- - Numeric Type
  temperature;   !- - Unit Type

ScheduleTypeLimits,
  ACTIVITYLEVEL 7,   !- name
  0,   !- - Lower Limit Value {BasedOnField A3}
  ,   !- - Upper Limit Value {BasedOnField A3}
  Continuous,   !- - Numeric Type
  activitylevel;   !- - Unit Type

ScheduleTypeLimits,
  ACTIVITYLEVEL 8,   !- name
  0,   !- - Lower Limit Value {BasedOnField A3}
  ,   !- - Upper Limit Value {BasedOnField A3}
  Continuous,   !- - Numeric Type
  activitylevel;   !- - Unit Type

ScheduleTypeLimits,
  TEMPERATURE 22,   !- name
  ,   !- - Lower Limit Value {BasedOnField A3}
  ,   !- - Upper Limit Value {BasedOnField A3}
  Continuous,   !- - Numeric Type
  temperature;   !- - Unit Type

ScheduleTypeLimits,
  TEMPERATURE 32,   !- name
  ,   !- - Lower Limit Value {BasedOnField A3}
  ,   !- - Upper Limit Value {BasedOnField A3}
  Continuous,   !- - Numeric Type
  temperature;   !- - Unit Type

ScheduleTypeLimits,
  TEMPERATURE 12,   !- name
  ,   !- - Lower Limit Value {BasedOnField A3}
  ,   !- - Upper Limit Value {BasedOnField A3}
  Continuous,   !- - Numeric Type
  temperature;   !- - Unit Type

ScheduleTypeLimits,
  TEMPERATURE 52,   !- name
  ,   !- - Lower Limit Value {BasedOnField A3}
  ,   !- - Upper Limit Value {BasedOnField A3}
  Continuous,   !- - Numeric Type
  temperature;   !- - Unit Type

ScheduleTypeLimits,
  ACTIVITYLEVEL 14,   !- name
  0,   !- - Lower Limit Value {BasedOnField A3}
  ,   !- - Upper Limit Value {BasedOnField A3}
  Continuous,   !- - Numeric Type
  activitylevel;   !- - Unit Type

ScheduleTypeLimits,
  TEMPERATURE 43,   !- name
  ,   !- - Lower Limit Value {BasedOnField A3}
  ,   !- - Upper Limit Value {BasedOnField A3}
  Continuous,   !- - Numeric Type
  temperature;   !- - Unit Type

ScheduleTypeLimits,
  TEMPERATURE 53,   !- name
  ,   !- - Lower Limit Value {BasedOnField A3}
  ,   !- - Upper Limit Value {BasedOnField A3}
  Continuous,   !- - Numeric Type
  temperature;   !- - Unit Type

ScheduleTypeLimits,
  TEMPERATURE 23,   !- name
  ,   !- - Lower Limit Value {BasedOnField A3}
  ,   !- - Upper Limit Value {BasedOnField A3}
  Continuous,   !- - Numeric Type
  temperature;   !- - Unit Type

ScheduleTypeLimits,
  ACTIVITYLEVEL 11,   !- name
  0,   !- - Lower Limit Value {BasedOnField A3}
  ,   !- - Upper Limit Value {BasedOnField A3}
  Continuous,   !- - Numeric Type
  activitylevel;   !- - Unit Type

ScheduleTypeLimits,
  ACTIVITYLEVEL 2,   !- name
  0,   !- - Lower Limit Value {BasedOnField A3}
  ,   !- - Upper Limit Value {BasedOnField A3}
  Continuous,   !- - Numeric Type
  activitylevel;   !- - Unit Type

ScheduleTypeLimits,
  FRACTIONAL,   !- name
  0,   !- - Lower Limit Value {BasedOnField A3}
  1,   !- - Upper Limit Value {BasedOnField A3}
  Continuous;   !- - Numeric Type

ScheduleTypeLimits,
  FRACTION,   !- name
  0,   !- - Lower Limit Value {BasedOnField A3}
  1,   !- - Upper Limit Value {BasedOnField A3}
  CONTINUOUS;   !- - Numeric Type

ScheduleTypeLimits,
  TEMPERATURE 13,   !- name
  ,   !- - Lower Limit Value {BasedOnField A3}
  ,   !- - Upper Limit Value {BasedOnField A3}
  Continuous,   !- - Numeric Type
  temperature;   !- - Unit Type

ScheduleTypeLimits,
  TEMPERATURE 2,   !- name
  ,   !- - Lower Limit Value {BasedOnField A3}
  ,   !- - Upper Limit Value {BasedOnField A3}
  Continuous,   !- - Numeric Type
  temperature;   !- - Unit Type

ScheduleTypeLimits,
  TEMPERATURE 1,   !- name
  ,   !- - Lower Limit Value {BasedOnField A3}
  ,   !- - Upper Limit Value {BasedOnField A3}
  Continuous,   !- - Numeric Type
  temperature;   !- - Unit Type

ScheduleTypeLimits,
  TEMPERATURE 3,   !- name
  ,   !- - Lower Limit Value {BasedOnField A3}
  ,   !- - Upper Limit Value {BasedOnField A3}
  Continuous,   !- - Numeric Type
  temperature;   !- - Unit Type

ScheduleTypeLimits,
  TEMPERATURE 33,   !- name
  ,   !- - Lower Limit Value {BasedOnField A3}
  ,   !- - Upper Limit Value {BasedOnField A3}
  Continuous,   !- - Numeric Type
  temperature;   !- - Unit Type

ScheduleTypeLimits,
  ACTIVITYLEVEL,   !- name
  0,   !- - Lower Limit Value {BasedOnField A3}
  ,   !- - Upper Limit Value {BasedOnField A3}
  Continuous,   !- - Numeric Type
  activitylevel;   !- - Unit Type

ScheduleTypeLimits,
  TEMPERATURE 4,   !- name
  ,   !- - Lower Limit Value {BasedOnField A3}
  ,   !- - Upper Limit Value {BasedOnField A3}
  Continuous,   !- - Numeric Type
  temperature;   !- - Unit Type

ScheduleTypeLimits,
  TEMPERATURE 48,   !- name
  ,   !- - Lower Limit Value {BasedOnField A3}
  ,   !- - Upper Limit Value {BasedOnField A3}
  Continuous,   !- - Numeric Type
  temperature;   !- - Unit Type

ScheduleTypeLimits,
  TEMPERATURE 5,   !- name
  ,   !- - Lower Limit Value {BasedOnField A3}
  ,   !- - Upper Limit Value {BasedOnField A3}
  Continuous,   !- - Numeric Type
  temperature;   !- - Unit Type

ScheduleTypeLimits,
  TEMPERATURE 40,   !- name
  ,   !- - Lower Limit Value {BasedOnField A3}
  ,   !- - Upper Limit Value {BasedOnField A3}
  Continuous,   !- - Numeric Type
  temperature;   !- - Unit Type

ScheduleTypeLimits,
  TEMPERATURE 38,   !- name
  ,   !- - Lower Limit Value {BasedOnField A3}
  ,   !- - Upper Limit Value {BasedOnField A3}
  Continuous,   !- - Numeric Type
  temperature;   !- - Unit Type

ScheduleTypeLimits,
  TEMPERATURE 20,   !- name
  ,   !- - Lower Limit Value {BasedOnField A3}
  ,   !- - Upper Limit Value {BasedOnField A3}
  Continuous,   !- - Numeric Type
  temperature;   !- - Unit Type

ScheduleTypeLimits,
  TEMPERATURE 18,   !- name
  ,   !- - Lower Limit Value {BasedOnField A3}
  ,   !- - Upper Limit Value {BasedOnField A3}
  Continuous,   !- - Numeric Type
  temperature;   !- - Unit Type

ScheduleTypeLimits,
  TEMPERATURE 30,   !- name
  ,   !- - Lower Limit Value {BasedOnField A3}
  ,   !- - Upper Limit Value {BasedOnField A3}
  Continuous,   !- - Numeric Type
  temperature;   !- - Unit Type

ScheduleTypeLimits,
  TEMPERATURE 10,   !- name
  ,   !- - Lower Limit Value {BasedOnField A3}
  ,   !- - Upper Limit Value {BasedOnField A3}
  Continuous,   !- - Numeric Type
  temperature;   !- - Unit Type

ScheduleTypeLimits,
  TEMPERATURE 50,   !- name
  ,   !- - Lower Limit Value {BasedOnField A3}
  ,   !- - Upper Limit Value {BasedOnField A3}
  Continuous,   !- - Numeric Type
  temperature;   !- - Unit Type

ScheduleTypeLimits,
  TEMPERATURE 6,   !- name
  ,   !- - Lower Limit Value {BasedOnField A3}
  ,   !- - Upper Limit Value {BasedOnField A3}
  Continuous,   !- - Numeric Type
  temperature;   !- - Unit Type

ScheduleTypeLimits,
  TEMPERATURE 7,   !- name
  ,   !- - Lower Limit Value {BasedOnField A3}
  ,   !- - Upper Limit Value {BasedOnField A3}
  Continuous,   !- - Numeric Type
  temperature;   !- - Unit Type

ScheduleTypeLimits,
  ACTIVITYLEVEL 13,   !- name
  0,   !- - Lower Limit Value {BasedOnField A3}
  ,   !- - Upper Limit Value {BasedOnField A3}
  Continuous,   !- - Numeric Type
  activitylevel;   !- - Unit Type

ScheduleTypeLimits,
  ACTIVITYLEVEL 1,   !- name
  0,   !- - Lower Limit Value {BasedOnField A3}
  ,   !- - Upper Limit Value {BasedOnField A3}
  Continuous,   !- - Numeric Type
  activitylevel;   !- - Unit Type

ScheduleTypeLimits,
  TEMPERATURE 8,   !- name
  ,   !- - Lower Limit Value {BasedOnField A3}
  ,   !- - Upper Limit Value {BasedOnField A3}
  Continuous,   !- - Numeric Type
  temperature;   !- - Unit Type

ScheduleTypeLimits,
  TEMPERATURE 9,   !- name
  ,   !- - Lower Limit Value {BasedOnField A3}
  ,   !- - Upper Limit Value {BasedOnField A3}
  Continuous,   !- - Numeric Type
  temperature;   !- - Unit Type

ScheduleTypeLimits,
  TEMPERATURE 49,   !- name
  ,   !- - Lower Limit Value {BasedOnField A3}
  ,   !- - Upper Limit Value {BasedOnField A3}
  Continuous,   !- - Numeric Type
  temperature;   !- - Unit Type

ScheduleTypeLimits,
  TEMPERATURE 59,   !- name
  ,   !- - Lower Limit Value {BasedOnField A3}
  ,   !- - Upper Limit Value {BasedOnField A3}
  Continuous,   !- - Numeric Type
  temperature;   !- - Unit Type

ScheduleTypeLimits,
  TEMPERATURE 29,   !- name
  ,   !- - Lower Limit Value {BasedOnField A3}
  ,   !- - Upper Limit Value {BasedOnField A3}
  Continuous,   !- - Numeric Type
  temperature;   !- - Unit Type

ScheduleTypeLimits,
  ACTIVITYLEVEL 9,   !- name
  0,   !- - Lower Limit Value {BasedOnField A3}
  ,   !- - Upper Limit Value {BasedOnField A3}
  Continuous,   !- - Numeric Type
  activitylevel;   !- - Unit Type

ScheduleTypeLimits,
  ACTIVITYLEVEL 4,   !- name
  0,   !- - Lower Limit Value {BasedOnField A3}
  ,   !- - Upper Limit Value {BasedOnField A3}
  Continuous,   !- - Numeric Type
  activitylevel;   !- - Unit Type

ScheduleTypeLimits,
  TEMPERATURE 19,   !- name
  ,   !- - Lower Limit Value {BasedOnField A3}
  ,   !- - Upper Limit Value {BasedOnField A3}
  Continuous,   !- - Numeric Type
  temperature;   !- - Unit Type

ScheduleTypeLimits,
  TEMPERATURE 21,   !- name
  ,   !- - Lower Limit Value {BasedOnField A3}
  ,   !- - Upper Limit Value {BasedOnField A3}
  Continuous,   !- - Numeric Type
  temperature;   !- - Unit Type

ScheduleTypeLimits,
  TEMPERATURE 11,   !- name
  ,   !- - Lower Limit Value {BasedOnField A3}
  ,   !- - Upper Limit Value {BasedOnField A3}
  Continuous,   !- - Numeric Type
  temperature;   !- - Unit Type

ScheduleTypeLimits,
  TEMPERATURE 31,   !- name
  ,   !- - Lower Limit Value {BasedOnField A3}
  ,   !- - Upper Limit Value {BasedOnField A3}
  Continuous,   !- - Numeric Type
  temperature;   !- - Unit Type

ScheduleTypeLimits,
  TEMPERATURE 41,   !- name
  ,   !- - Lower Limit Value {BasedOnField A3}
  ,   !- - Upper Limit Value {BasedOnField A3}
  Continuous,   !- - Numeric Type
  temperature;   !- - Unit Type

ScheduleTypeLimits,
  TEMPERATURE 51,   !- name
  ,   !- - Lower Limit Value {BasedOnField A3}
  ,   !- - Upper Limit Value {BasedOnField A3}
  Continuous,   !- - Numeric Type
  temperature;   !- - Unit Type

ScheduleTypeLimits,
  ACTIVITYLEVEL 15,   !- name
  0,   !- - Lower Limit Value {BasedOnField A3}
  ,   !- - Upper Limit Value {BasedOnField A3}
  Continuous,   !- - Numeric Type
  activitylevel;   !- - Unit Type

ScheduleTypeLimits,
  TEMPERATURE 46,   !- name
  ,   !- - Lower Limit Value {BasedOnField A3}
  ,   !- - Upper Limit Value {BasedOnField A3}
  Continuous,   !- - Numeric Type
  temperature;   !- - Unit Type

ScheduleTypeLimits,
  TEMPERATURE 56,   !- name
  ,   !- - Lower Limit Value {BasedOnField A3}
  ,   !- - Upper Limit Value {BasedOnField A3}
  Continuous,   !- - Numeric Type
  temperature;   !- - Unit Type

ScheduleTypeLimits,
  TEMPERATURE 26,   !- name
  ,   !- - Lower Limit Value {BasedOnField A3}
  ,   !- - Upper Limit Value {BasedOnField A3}
  Continuous,   !- - Numeric Type
  temperature;   !- - Unit Type

ScheduleTypeLimits,
  TEMPERATURE 36,   !- name
  ,   !- - Lower Limit Value {BasedOnField A3}
  ,   !- - Upper Limit Value {BasedOnField A3}
  Continuous,   !- - Numeric Type
  temperature;   !- - Unit Type

ScheduleTypeLimits,
  ACTIVITYLEVEL 3,   !- name
  0,   !- - Lower Limit Value {BasedOnField A3}
  ,   !- - Upper Limit Value {BasedOnField A3}
  Continuous,   !- - Numeric Type
  activitylevel;   !- - Unit Type

ScheduleTypeLimits,
  TEMPERATURE 16,   !- name
  ,   !- - Lower Limit Value {BasedOnField A3}
  ,   !- - Upper Limit Value {BasedOnField A3}
  Continuous,   !- - Numeric Type
  temperature;   !- - Unit Type


GlobalGeometryRules,
	LowerLeftCorner,         !- Starting Vertex Position
	CounterClockWise,        !- Vertex Entry Direction
	Absolute;                !- Coordinate System

Zone,
	zone_0,
	0,	!-Direction of Relative North {deg}
	0.0,	!- X Origin {m}
	0.0,	!- Y Origin {m}
	0.0,	!- Z Origin {m}
	1;	!- Type

BuildingSurface:Detailed,
	zone_0_Srf_0,	!- Name
	WALL,	!- Surface Type
	Exterior Wall,	!- Construction Name
	zone_0,	!- Zone Name
	Outdoors,	!- Outside Boundary Condition
	,	!- Outside Boundary Condition Object
	SunExposed,	!- Sun Exposure
	WindExposed,	!- Wind Exposure
	autocalculate,	!- View Factor to Ground
	4,	!- Number of Vertices
	26.421091079711914,
	-3.5819106101989746,
	0.0,
	30.043474197387695,
	-3.5819106101989746,
	0.0,
	30.043474197387695,
	-3.5819106101989746,
	11.537866592407227,
	26.421091079711914,
	-3.5819106101989746,
	11.537866592407227;


FenestrationSurface:Detailed,
	zone_0_Srf_0_glz_0,	!- Name
	WINDOW,	!- Surface Type
	Exterior Window,	!- Construction Name
	zone_0_Srf_0,	!- Surface Name
	,	!- Outside Boundary Condition Object
	autocalculate,	!- View Factor to Ground
	,	!- Shading Control Name
	,	!- Frame and Divider Name
	1,	!- Multiplier
	4,	!- Number of Vertices
	26.8293399810791,
	-3.5819106101989746,
	1.3003368377685547,
	29.635225296020508,
	-3.5819106101989746,
	1.3003368377685547,
	29.635225296020508,
	-3.5819106101989746,
	10.237529754638672,
	26.8293399810791,
	-3.5819106101989746,
	10.237529754638672;


BuildingSurface:Detailed,
	zone_0_Srf_1,	!- Name
	WALL,	!- Surface Type
	Exterior Wall,	!- Construction Name
	zone_0,	!- Zone Name
	Outdoors,	!- Outside Boundary Condition
	,	!- Outside Boundary Condition Object
	SunExposed,	!- Sun Exposure
	WindExposed,	!- Wind Exposure
	autocalculate,	!- View Factor to Ground
	4,	!- Number of Vertices
	30.043474197387695,
	-3.5819106101989746,
	0.0,
	30.043474197387695,
	3.3640964031219482,
	0.0,
	30.043474197387695,
	3.3640964031219482,
	11.537866592407227,
	30.043474197387695,
	-3.5819106101989746,
	11.537866592407227;


FenestrationSurface:Detailed,
	zone_0_Srf_1_glz_0,	!- Name
	WINDOW,	!- Surface Type
	Exterior Window,	!- Construction Name
	zone_0_Srf_1,	!- Surface Name
	,	!- Outside Boundary Condition Object
	autocalculate,	!- View Factor to Ground
	,	!- Shading Control Name
	,	!- Frame and Divider Name
	1,	!- Multiplier
	4,	!- Number of Vertices
	30.043474197387695,
	-1.4539955854415894,
	3.534635066986084,
	30.043474197387695,
	1.236181378364563,
	3.534635066986084,
	30.043474197387695,
	1.236181378364563,
	8.003232002258301,
	30.043474197387695,
	-1.4539955854415894,
	8.003232002258301;


BuildingSurface:Detailed,
	zone_0_Srf_2,	!- Name
	WALL,	!- Surface Type
	Exterior Wall,	!- Construction Name
	zone_0,	!- Zone Name
	Outdoors,	!- Outside Boundary Condition
	,	!- Outside Boundary Condition Object
	SunExposed,	!- Sun Exposure
	WindExposed,	!- Wind Exposure
	autocalculate,	!- View Factor to Ground
	4,	!- Number of Vertices
	30.043474197387695,
	3.3640964031219482,
	0.0,
	26.421091079711914,
	3.3640964031219482,
	0.0,
	26.421091079711914,
	3.3640964031219482,
	11.537866592407227,
	30.043474197387695,
	3.3640964031219482,
	11.537866592407227;


FenestrationSurface:Detailed,
	zone_0_Srf_2_glz_0,	!- Name
	WINDOW,	!- Surface Type
	Exterior Window,	!- Construction Name
	zone_0_Srf_2,	!- Surface Name
	,	!- Outside Boundary Condition Object
	autocalculate,	!- View Factor to Ground
	,	!- Shading Control Name
	,	!- Frame and Divider Name
	1,	!- Multiplier
	4,	!- Number of Vertices
	28.933753967285156,
	3.3640964031219482,
	3.534635066986084,
	27.530811309814453,
	3.3640964031219482,
	3.534635066986084,
	27.530811309814453,
	3.3640964031219482,
	8.003232002258301,
	28.933753967285156,
	3.3640964031219482,
	8.003232002258301;


BuildingSurface:Detailed,
	zone_0_Srf_3,	!- Name
	WALL,	!- Surface Type
	Exterior Wall,	!- Construction Name
	zone_0,	!- Zone Name
	Outdoors,	!- Outside Boundary Condition
	,	!- Outside Boundary Condition Object
	SunExposed,	!- Sun Exposure
	WindExposed,	!- Wind Exposure
	autocalculate,	!- View Factor to Ground
	4,	!- Number of Vertices
	26.421091079711914,
	3.3640964031219482,
	0.0,
	26.421091079711914,
	-3.5819106101989746,
	0.0,
	26.421091079711914,
	-3.5819106101989746,
	11.537866592407227,
	26.421091079711914,
	3.3640964031219482,
	11.537866592407227;


FenestrationSurface:Detailed,
	zone_0_Srf_3_glz_0,	!- Name
	WINDOW,	!- Surface Type
	Exterior Window,	!- Construction Name
	zone_0_Srf_3,	!- Surface Name
	,	!- Outside Boundary Condition Object
	autocalculate,	!- View Factor to Ground
	,	!- Shading Control Name
	,	!- Frame and Divider Name
	1,	!- Multiplier
	4,	!- Number of Vertices
	26.421091079711914,
	1.236181378364563,
	3.534635066986084,
	26.421091079711914,
	-1.4539955854415894,
	3.534635066986084,
	26.421091079711914,
	-1.4539955854415894,
	8.003232002258301,
	26.421091079711914,
	1.236181378364563,
	8.003232002258301;


BuildingSurface:Detailed,
	zone_0_Srf_4,	!- Name
	FLOOR,	!- Surface Type
	Interior Floor,	!- Construction Name
	zone_0,	!- Zone Name
	ground,	!- Outside Boundary Condition
	,	!- Outside Boundary Condition Object
	NoSun,	!- Sun Exposure
	NoWind,	!- Wind Exposure
	autocalculate,	!- View Factor to Ground
	4,	!- Number of Vertices
	26.421091079711914,
	-3.5819106101989746,
	0.0,
	26.421091079711914,
	3.3640964031219482,
	0.0,
	30.043474197387695,
	3.3640964031219482,
	0.0,
	30.043474197387695,
	-3.5819106101989746,
	0.0;


BuildingSurface:Detailed,
	zone_0_Srf_5,	!- Name
	ROOF,	!- Surface Type
	Exterior Roof,	!- Construction Name
	zone_0,	!- Zone Name
	Outdoors,	!- Outside Boundary Condition
	,	!- Outside Boundary Condition Object
	SunExposed,	!- Sun Exposure
	WindExposed,	!- Wind Exposure
	autocalculate,	!- View Factor to Ground
	4,	!- Number of Vertices
	26.421091079711914,
	-3.5819106101989746,
	11.537866592407227,
	30.043474197387695,
	-3.5819106101989746,
	11.537866592407227,
	30.043474197387695,
	3.3640964031219482,
	11.537866592407227,
	26.421091079711914,
	3.3640964031219482,
	11.537866592407227;


Zone,
	zone_1,
	0,	!-Direction of Relative North {deg}
	0.0,	!- X Origin {m}
	0.0,	!- Y Origin {m}
	0.0,	!- Z Origin {m}
	1;	!- Type

BuildingSurface:Detailed,
	zone_1_Srf_0,	!- Name
	WALL,	!- Surface Type
	Exterior Wall,	!- Construction Name
	zone_1,	!- Zone Name
	Outdoors,	!- Outside Boundary Condition
	,	!- Outside Boundary Condition Object
	SunExposed,	!- Sun Exposure
	WindExposed,	!- Wind Exposure
	autocalculate,	!- View Factor to Ground
	4,	!- Number of Vertices
	33.334548950195312,
	-41.516189575195312,
	0.0,
	40.3736686706543,
	-41.516189575195312,
	0.0,
	40.3736686706543,
	-41.516189575195312,
	4.648221969604492,
	33.334548950195312,
	-41.516189575195312,
	4.648221969604492;


FenestrationSurface:Detailed,
	zone_1_Srf_0_glz_0,	!- Name
	WINDOW,	!- Surface Type
	Exterior Window,	!- Construction Name
	zone_1_Srf_0,	!- Surface Name
	,	!- Outside Boundary Condition Object
	autocalculate,	!- View Factor to Ground
	,	!- Shading Control Name
	,	!- Frame and Divider Name
	1,	!- Multiplier
	4,	!- Number of Vertices
	34.12786865234375,
	-41.516189575195312,
	0.52386236190795898,
	39.580348968505859,
	-41.516189575195312,
	0.52386236190795898,
	39.580348968505859,
	-41.516189575195312,
	4.124359607696533,
	34.12786865234375,
	-41.516189575195312,
	4.124359607696533;


BuildingSurface:Detailed,
	zone_1_Srf_1,	!- Name
	WALL,	!- Surface Type
	Exterior Wall,	!- Construction Name
	zone_1,	!- Zone Name
	Outdoors,	!- Outside Boundary Condition
	,	!- Outside Boundary Condition Object
	SunExposed,	!- Sun Exposure
	WindExposed,	!- Wind Exposure
	autocalculate,	!- View Factor to Ground
	4,	!- Number of Vertices
	40.3736686706543,
	-41.516189575195312,
	0.0,
	40.3736686706543,
	-35.741546630859375,
	0.0,
	40.3736686706543,
	-35.741546630859375,
	4.648221969604492,
	40.3736686706543,
	-41.516189575195312,
	4.648221969604492;


FenestrationSurface:Detailed,
	zone_1_Srf_1_glz_0,	!- Name
	WINDOW,	!- Surface Type
	Exterior Window,	!- Construction Name
	zone_1_Srf_1,	!- Surface Name
	,	!- Outside Boundary Condition Object
	autocalculate,	!- View Factor to Ground
	,	!- Shading Control Name
	,	!- Frame and Divider Name
	1,	!- Multiplier
	4,	!- Number of Vertices
	40.3736686706543,
	-39.747123718261719,
	1.4239866733551025,
	40.3736686706543,
	-37.510612487792969,
	1.4239866733551025,
	40.3736686706543,
	-37.510612487792969,
	3.2242355346679688,
	40.3736686706543,
	-39.747123718261719,
	3.2242355346679688;


BuildingSurface:Detailed,
	zone_1_Srf_2,	!- Name
	WALL,	!- Surface Type
	Exterior Wall,	!- Construction Name
	zone_1,	!- Zone Name
	Outdoors,	!- Outside Boundary Condition
	,	!- Outside Boundary Condition Object
	SunExposed,	!- Sun Exposure
	WindExposed,	!- Wind Exposure
	autocalculate,	!- View Factor to Ground
	4,	!- Number of Vertices
	40.3736686706543,
	-35.741546630859375,
	0.0,
	33.334548950195312,
	-35.741546630859375,
	0.0,
	33.334548950195312,
	-35.741546630859375,
	4.648221969604492,
	40.3736686706543,
	-35.741546630859375,
	4.648221969604492;


FenestrationSurface:Detailed,
	zone_1_Srf_2_glz_0,	!- Name
	WINDOW,	!- Surface Type
	Exterior Window,	!- Construction Name
	zone_1_Srf_2,	!- Surface Name
	,	!- Outside Boundary Condition Object
	autocalculate,	!- View Factor to Ground
	,	!- Shading Control Name
	,	!- Frame and Divider Name
	1,	!- Multiplier
	4,	!- Number of Vertices
	38.217227935791016,
	-35.741546630859375,
	1.4239866733551025,
	35.490989685058594,
	-35.741546630859375,
	1.4239866733551025,
	35.490989685058594,
	-35.741546630859375,
	3.2242355346679688,
	38.217227935791016,
	-35.741546630859375,
	3.2242355346679688;


BuildingSurface:Detailed,
	zone_1_Srf_3,	!- Name
	WALL,	!- Surface Type
	Exterior Wall,	!- Construction Name
	zone_1,	!- Zone Name
	Outdoors,	!- Outside Boundary Condition
	,	!- Outside Boundary Condition Object
	SunExposed,	!- Sun Exposure
	WindExposed,	!- Wind Exposure
	autocalculate,	!- View Factor to Ground
	4,	!- Number of Vertices
	33.334548950195312,
	-35.741546630859375,
	0.0,
	33.334548950195312,
	-41.516189575195312,
	0.0,
	33.334548950195312,
	-41.516189575195312,
	4.648221969604492,
	33.334548950195312,
	-35.741546630859375,
	4.648221969604492;


FenestrationSurface:Detailed,
	zone_1_Srf_3_glz_0,	!- Name
	WINDOW,	!- Surface Type
	Exterior Window,	!- Construction Name
	zone_1_Srf_3,	!- Surface Name
	,	!- Outside Boundary Condition Object
	autocalculate,	!- View Factor to Ground
	,	!- Shading Control Name
	,	!- Frame and Divider Name
	1,	!- Multiplier
	4,	!- Number of Vertices
	33.334548950195312,
	-37.510612487792969,
	1.4239866733551025,
	33.334548950195312,
	-39.747123718261719,
	1.4239866733551025,
	33.334548950195312,
	-39.747123718261719,
	3.2242355346679688,
	33.334548950195312,
	-37.510612487792969,
	3.2242355346679688;


BuildingSurface:Detailed,
	zone_1_Srf_4,	!- Name
	FLOOR,	!- Surface Type
	Interior Floor,	!- Construction Name
	zone_1,	!- Zone Name
	ground,	!- Outside Boundary Condition
	,	!- Outside Boundary Condition Object
	NoSun,	!- Sun Exposure
	NoWind,	!- Wind Exposure
	autocalculate,	!- View Factor to Ground
	4,	!- Number of Vertices
	33.334548950195312,
	-41.516189575195312,
	0.0,
	33.334548950195312,
	-35.741546630859375,
	0.0,
	40.3736686706543,
	-35.741546630859375,
	0.0,
	40.3736686706543,
	-41.516189575195312,
	0.0;


BuildingSurface:Detailed,
	zone_1_Srf_5,	!- Name
	ROOF,	!- Surface Type
	Exterior Roof,	!- Construction Name