
Version, 8.1;

Timestep, 6;

ShadowCalculation,
	AverageOverDaysInFrequency,        !- Calculation Method
	30,        !- Calculation Frequency
	3000;    !- Maximum Figures in Shadow Overlap Calculation

ProgramControl,
	10; !- Number of Threads AllowedNumber

Building,
	unnamed.idf, !- Name
	0.0, !- North Axis {deg}
	City, !- Terrain
	0.040000000000000001, !- Loads Convergence Tolerance Value
	0.40000000000000002, !- Temperature Convergence Tolerance Value {deltaC}
	FullInteriorAndExteriorWithReflections, !- Solar Distribution or maybe FullExterior
	25, !- Maximum Number of Warmup Days
	6; !- Minimum Number of Warmup Days

HeatBalanceAlgorithm, ConductionTransferFunction;

SurfaceConvectionAlgorithm:Inside, TARP;

SurfaceConvectionAlgorithm:Outside, DOE-2;

Site:Location,
	New York J F Kennedy IntL Ar	USA,
	40.65,    !Latitude
	-73.80,   !Longitude
	-5.0, !Time Zone
	5.0;   !Elevation

SizingPeriod:WeatherFileConditionType,
	ExtremeSizingWinterExtreme,
	WinterExtreme,    !Period Selection
	Monday,   !Day of Week for Start Day
	Yes, !Use Weather File Daylight Davings Period
	Yes;   !Use WeatherFile Rain and Snow Indicators

SizingPeriod:WeatherFileConditionType,
	ExtremeSizingSummerExtreme,
	SummerExtreme,    !Period Selection
	Monday,   !Day of Week for Start Day
	Yes, !Use Weather File Daylight Davings Period
	Yes;   !Use WeatherFile Rain and Snow Indicators

SimulationControl,
	Yes,    !- Do Zone Sizing Calculation
	Yes,  !- Do System Sizing Calculation
	Yes,   !- Do Plant Sizing Calculation
	No,  !- Run Simulation for Sizing Periods
	Yes; !- Run Simulation for Weather File Run Periods

RunPeriod,
	customRun,    !- Name
	1,   !- Begin Month
	1,    !- Begin Day of Month
	1, !- End Month
	31,   !- End Day of Month
	UseWeatherFile,   !- Day of Week for Start Day
	Yes,              !- Use Weather File Holidays and Special Days
	Yes,              !- Use Weather File Daylight Saving Period
	No,               !- Apply Weekend Holiday Rule
	Yes,              !- Use Weather File Rain Indicators
	Yes;              !- Use Weather File Snow Indicators
ScheduleTypeLimits,
  ACTIVITYLEVEL 6,   !- name
  0,   !- - Lower Limit Value {BasedOnField A3}
  ,   !- - Upper Limit Value {BasedOnField A3}
  Continuous,   !- - Numeric Type
  activitylevel;   !- - Unit Type

ScheduleTypeLimits,
  TEMPERATURE 47,   !- name
  ,   !- - Lower Limit Value {BasedOnField A3}
  ,   !- - Upper Limit Value {BasedOnField A3}
  Continuous,   !- - Numeric Type
  temperature;   !- - Unit Type

ScheduleTypeLimits,
  TEMPERATURE 27,   !- name
  ,   !- - Lower Limit Value {BasedOnField A3}
  ,   !- - Upper Limit Value {BasedOnField A3}
  Continuous,   !- - Numeric Type
  temperature;   !- - Unit Type

ScheduleTypeLimits,
  TEMPERATURE 37,   !- name
  ,   !- - Lower Limit Value {BasedOnField A3}
  ,   !- - Upper Limit Value {BasedOnField A3}
  Continuous,   !- - Numeric Type
  temperature;   !- - Unit Type

ScheduleTypeLimits,
  TEMPERATURE 17,   !- name
  ,   !- - Lower Limit Value {BasedOnField A3}
  ,   !- - Upper Limit Value {BasedOnField A3}
  Continuous,   !- - Numeric Type
  temperature;   !- - Unit Type

ScheduleTypeLimits,
  ACTIVITYLEVEL 10,   !- name
  0,   !- - Lower Limit Value {BasedOnField A3}
  ,   !- - Upper Limit Value {BasedOnField A3}
  Continuous,   !- - Numeric Type
  activitylevel;   !- - Unit Type

ScheduleTypeLimits,
  TEMPERATURE 44,   !- name
  ,   !- - Lower Limit Value {BasedOnField A3}
  ,   !- - Upper Limit Value {BasedOnField A3}
  Continuous,   !- - Numeric Type
  temperature;   !- - Unit Type

ScheduleTypeLimits,
  TEMPERATURE 54,   !- name
  ,   !- - Lower Limit Value {BasedOnField A3}
  ,   !- - Upper Limit Value {BasedOnField A3}
  Continuous,   !- - Numeric Type
  temperature;   !- - Unit Type

ScheduleTypeLimits,
  TEMPERATURE 24,   !- name
  ,   !- - Lower Limit Value {BasedOnField A3}
  ,   !- - Upper Limit Value {BasedOnField A3}
  Continuous,   !- - Numeric Type
  temperature;   !- - Unit Type

ScheduleTypeLimits,
  ACTIVITYLEVEL 5,   !- name
  0,   !- - Lower Limit Value {BasedOnField A3}
  ,   !- - Upper Limit Value {BasedOnField A3}
  Continuous,   !- - Numeric Type
  activitylevel;   !- - Unit Type

ScheduleTypeLimits,
  ON/OFF,   !- name
  0,   !- - Lower Limit Value {BasedOnField A3}
  1,   !- - Upper Limit Value {BasedOnField A3}
  DISCRETE;   !- - Numeric Type

ScheduleTypeLimits,
  TEMPERATURE 14,   !- name
  ,   !- - Lower Limit Value {BasedOnField A3}
  ,   !- - Upper Limit Value {BasedOnField A3}
  Continuous,   !- - Numeric Type
  temperature;   !- - Unit Type

ScheduleTypeLimits,
  TEMPERATURE 34,   !- name
  ,   !- - Lower Limit Value {BasedOnField A3}
  ,   !- - Upper Limit Value {BasedOnField A3}
  Continuous,   !- - Numeric Type
  temperature;   !- - Unit Type

ScheduleTypeLimits,
  TEMPERATURE 45,   !- name
  ,   !- - Lower Limit Value {BasedOnField A3}
  ,   !- - Upper Limit Value {BasedOnField A3}
  Continuous,   !- - Numeric Type
  temperature;   !- - Unit Type

ScheduleTypeLimits,
  TEMPERATURE 55,   !- name
  ,   !- - Lower Limit Value {BasedOnField A3}
  ,   !- - Upper Limit Value {BasedOnField A3}
  Continuous,   !- - Numeric Type
  temperature;   !- - Unit Type

ScheduleTypeLimits,
  TEMPERATURE 25,   !- name
  ,   !- - Lower Limit Value {BasedOnField A3}
  ,   !- - Upper Limit Value {BasedOnField A3}
  Continuous,   !- - Numeric Type
  temperature;   !- - Unit Type

ScheduleTypeLimits,
  ACTIVITYLEVEL 12,   !- name
  0,   !- - Lower Limit Value {BasedOnField A3}
  ,   !- - Upper Limit Value {BasedOnField A3}
  Continuous,   !- - Numeric Type
  activitylevel;   !- - Unit Type

ScheduleTypeLimits,
  TEMPERATURE 35,   !- name
  ,   !- - Lower Limit Value {BasedOnField A3}
  ,   !- - Upper Limit Value {BasedOnField A3}
  Continuous,   !- - Numeric Type
  temperature;   !- - Unit Type

ScheduleTypeLimits,
  TEMPERATURE 15,   !- name
  ,   !- - Lower Limit Value {BasedOnField A3}
  ,   !- - Upper Limit Value {BasedOnField A3}
  Continuous,   !- - Numeric Type
  temperature;   !- - Unit Type

ScheduleTypeLimits,
  TEMPERATURE 42,   !- name
  ,   !- - Lower Limit Value {BasedOnField A3}
  ,   !- - Upper Limit Value {BasedOnField A3}
  Continuous,   !- - Numeric Type
  temperature;   !- - Unit Type

ScheduleTypeLimits,
  ACTIVITYLEVEL 7,   !- name
  0,   !- - Lower Limit Value {BasedOnField A3}
  ,   !- - Upper Limit Value {BasedOnField A3}
  Continuous,   !- - Numeric Type
  activitylevel;   !- - Unit Type

ScheduleTypeLimits,
  ACTIVITYLEVEL 8,   !- name
  0,   !- - Lower Limit Value {BasedOnField A3}
  ,   !- - Upper Limit Value {BasedOnField A3}
  Continuous,   !- - Numeric Type
  activitylevel;   !- - Unit Type

ScheduleTypeLimits,
  TEMPERATURE 22,   !- name
  ,   !- - Lower Limit Value {BasedOnField A3}
  ,   !- - Upper Limit Value {BasedOnField A3}
  Continuous,   !- - Numeric Type
  temperature;   !- - Unit Type

ScheduleTypeLimits,
  TEMPERATURE 32,   !- name
  ,   !- - Lower Limit Value {BasedOnField A3}
  ,   !- - Upper Limit Value {BasedOnField A3}
  Continuous,   !- - Numeric Type
  temperature;   !- - Unit Type

ScheduleTypeLimits,
  TEMPERATURE 12,   !- name
  ,   !- - Lower Limit Value {BasedOnField A3}
  ,   !- - Upper Limit Value {BasedOnField A3}
  Continuous,   !- - Numeric Type
  temperature;   !- - Unit Type

ScheduleTypeLimits,
  TEMPERATURE 52,   !- name
  ,   !- - Lower Limit Value {BasedOnField A3}
  ,   !- - Upper Limit Value {BasedOnField A3}
  Continuous,   !- - Numeric Type
  temperature;   !- - Unit Type

ScheduleTypeLimits,
  ACTIVITYLEVEL 14,   !- name
  0,   !- - Lower Limit Value {BasedOnField A3}
  ,   !- - Upper Limit Value {BasedOnField A3}
  Continuous,   !- - Numeric Type
  activitylevel;   !- - Unit Type

ScheduleTypeLimits,
  TEMPERATURE 43,   !- name
  ,   !- - Lower Limit Value {BasedOnField A3}
  ,   !- - Upper Limit Value {BasedOnField A3}
  Continuous,   !- - Numeric Type
  temperature;   !- - Unit Type

ScheduleTypeLimits,
  TEMPERATURE 53,   !- name
  ,   !- - Lower Limit Value {BasedOnField A3}
  ,   !- - Upper Limit Value {BasedOnField A3}
  Continuous,   !- - Numeric Type
  temperature;   !- - Unit Type

ScheduleTypeLimits,
  TEMPERATURE 23,   !- name
  ,   !- - Lower Limit Value {BasedOnField A3}
  ,   !- - Upper Limit Value {BasedOnField A3}
  Continuous,   !- - Numeric Type
  temperature;   !- - Unit Type

ScheduleTypeLimits,
  ACTIVITYLEVEL 11,   !- name
  0,   !- - Lower Limit Value {BasedOnField A3}
  ,   !- - Upper Limit Value {BasedOnField A3}
  Continuous,   !- - Numeric Type
  activitylevel;   !- - Unit Type

ScheduleTypeLimits,
  ACTIVITYLEVEL 2,   !- name
  0,   !- - Lower Limit Value {BasedOnField A3}
  ,   !- - Upper Limit Value {BasedOnField A3}
  Continuous,   !- - Numeric Type
  activitylevel;   !- - Unit Type

ScheduleTypeLimits,
  FRACTIONAL,   !- name
  0,   !- - Lower Limit Value {BasedOnField A3}
  1,   !- - Upper Limit Value {BasedOnField A3}
  Continuous;   !- - Numeric Type

ScheduleTypeLimits,
  FRACTION,   !- name
  0,   !- - Lower Limit Value {BasedOnField A3}
  1,   !- - Upper Limit Value {BasedOnField A3}
  CONTINUOUS;   !- - Numeric Type

ScheduleTypeLimits,
  TEMPERATURE 13,   !- name
  ,   !- - Lower Limit Value {BasedOnField A3}
  ,   !- - Upper Limit Value {BasedOnField A3}
  Continuous,   !- - Numeric Type
  temperature;   !- - Unit Type

ScheduleTypeLimits,
  TEMPERATURE 2,   !- name
  ,   !- - Lower Limit Value {BasedOnField A3}
  ,   !- - Upper Limit Value {BasedOnField A3}
  Continuous,   !- - Numeric Type
  temperature;   !- - Unit Type

ScheduleTypeLimits,
  TEMPERATURE 1,   !- name
  ,   !- - Lower Limit Value {BasedOnField A3}
  ,   !- - Upper Limit Value {BasedOnField A3}
  Continuous,   !- - Numeric Type
  temperature;   !- - Unit Type

ScheduleTypeLimits,
  TEMPERATURE 3,   !- name
  ,   !- - Lower Limit Value {BasedOnField A3}
  ,   !- - Upper Limit Value {BasedOnField A3}
  Continuous,   !- - Numeric Type
  temperature;   !- - Unit Type

ScheduleTypeLimits,
  TEMPERATURE 33,   !- name
  ,   !- - Lower Limit Value {BasedOnField A3}
  ,   !- - Upper Limit Value {BasedOnField A3}
  Continuous,   !- - Numeric Type
  temperature;   !- - Unit Type

ScheduleTypeLimits,
  ACTIVITYLEVEL,   !- name
  0,   !- - Lower Limit Value {BasedOnField A3}
  ,   !- - Upper Limit Value {BasedOnField A3}
  Continuous,   !- - Numeric Type
  activitylevel;   !- - Unit Type

ScheduleTypeLimits,
  TEMPERATURE 4,   !- name
  ,   !- - Lower Limit Value {BasedOnField A3}
  ,   !- - Upper Limit Value {BasedOnField A3}
  Continuous,   !- - Numeric Type
  temperature;   !- - Unit Type

ScheduleTypeLimits,
  TEMPERATURE 48,   !- name
  ,   !- - Lower Limit Value {BasedOnField A3}
  ,   !- - Upper Limit Value {BasedOnField A3}
  Continuous,   !- - Numeric Type
  temperature;   !- - Unit Type

ScheduleTypeLimits,
  TEMPERATURE 5,   !- name
  ,   !- - Lower Limit Value {BasedOnField A3}
  ,   !- - Upper Limit Value {BasedOnField A3}
  Continuous,   !- - Numeric Type
  temperature;   !- - Unit Type

ScheduleTypeLimits,
  TEMPERATURE 40,   !- name
  ,   !- - Lower Limit Value {BasedOnField A3}
  ,   !- - Upper Limit Value {BasedOnField A3}
  Continuous,   !- - Numeric Type
  temperature;   !- - Unit Type

ScheduleTypeLimits,
  TEMPERATURE 38,   !- name
  ,   !- - Lower Limit Value {BasedOnField A3}
  ,   !- - Upper Limit Value {BasedOnField A3}
  Continuous,   !- - Numeric Type
  temperature;   !- - Unit Type

ScheduleTypeLimits,
  TEMPERATURE 20,   !- name
  ,   !- - Lower Limit Value {BasedOnField A3}
  ,   !- - Upper Limit Value {BasedOnField A3}
  Continuous,   !- - Numeric Type
  temperature;   !- - Unit Type

ScheduleTypeLimits,
  TEMPERATURE 18,   !- name
  ,   !- - Lower Limit Value {BasedOnField A3}
  ,   !- - Upper Limit Value {BasedOnField A3}
  Continuous,   !- - Numeric Type
  temperature;   !- - Unit Type

ScheduleTypeLimits,
  TEMPERATURE 30,   !- name
  ,   !- - Lower Limit Value {BasedOnField A3}
  ,   !- - Upper Limit Value {BasedOnField A3}
  Continuous,   !- - Numeric Type
  temperature;   !- - Unit Type

ScheduleTypeLimits,
  TEMPERATURE 10,   !- name
  ,   !- - Lower Limit Value {BasedOnField A3}
  ,   !- - Upper Limit Value {BasedOnField A3}
  Continuous,   !- - Numeric Type
  temperature;   !- - Unit Type

ScheduleTypeLimits,
  TEMPERATURE 50,   !- name
  ,   !- - Lower Limit Value {BasedOnField A3}
  ,   !- - Upper Limit Value {BasedOnField A3}
  Continuous,   !- - Numeric Type
  temperature;   !- - Unit Type

ScheduleTypeLimits,
  TEMPERATURE 6,   !- name
  ,   !- - Lower Limit Value {BasedOnField A3}
  ,   !- - Upper Limit Value {BasedOnField A3}
  Continuous,   !- - Numeric Type
  temperature;   !- - Unit Type

ScheduleTypeLimits,
  TEMPERATURE 7,   !- name
  ,   !- - Lower Limit Value {BasedOnField A3}
  ,   !- - Upper Limit Value {BasedOnField A3}
  Continuous,   !- - Numeric Type
  temperature;   !- - Unit Type

ScheduleTypeLimits,
  ACTIVITYLEVEL 13,   !- name
  0,   !- - Lower Limit Value {BasedOnField A3}
  ,   !- - Upper Limit Value {BasedOnField A3}
  Continuous,   !- - Numeric Type
  activitylevel;   !- - Unit Type

ScheduleTypeLimits,
  ACTIVITYLEVEL 1,   !- name
  0,   !- - Lower Limit Value {BasedOnField A3}
  ,   !- - Upper Limit Value {BasedOnField A3}
  Continuous,   !- - Numeric Type
  activitylevel;   !- - Unit Type

ScheduleTypeLimits,
  TEMPERATURE 8,   !- name
  ,   !- - Lower Limit Value {BasedOnField A3}
  ,   !- - Upper Limit Value {BasedOnField A3}
  Continuous,   !- - Numeric Type
  temperature;   !- - Unit Type

ScheduleTypeLimits,
  TEMPERATURE 9,   !- name
  ,   !- - Lower Limit Value {BasedOnField A3}
  ,   !- - Upper Limit Value {BasedOnField A3}
  Continuous,   !- - Numeric Type
  temperature;   !- - Unit Type

ScheduleTypeLimits,
  TEMPERATURE 49,   !- name
  ,   !- - Lower Limit Value {BasedOnField A3}
  ,   !- - Upper Limit Value {BasedOnField A3}
  Continuous,   !- - Numeric Type
  temperature;   !- - Unit Type

ScheduleTypeLimits,
  TEMPERATURE 59,   !- name
  ,   !- - Lower Limit Value {BasedOnField A3}
  ,   !- - Upper Limit Value {BasedOnField A3}
  Continuous,   !- - Numeric Type
  temperature;   !- - Unit Type

ScheduleTypeLimits,
  TEMPERATURE 29,   !- name
  ,   !- - Lower Limit Value {BasedOnField A3}
  ,   !- - Upper Limit Value {BasedOnField A3}
  Continuous,   !- - Numeric Type
  temperature;   !- - Unit Type

ScheduleTypeLimits,
  ACTIVITYLEVEL 9,   !- name
  0,   !- - Lower Limit Value {BasedOnField A3}
  ,   !- - Upper Limit Value {BasedOnField A3}
  Continuous,   !- - Numeric Type
  activitylevel;   !- - Unit Type

ScheduleTypeLimits,
  ACTIVITYLEVEL 4,   !- name
  0,   !- - Lower Limit Value {BasedOnField A3}
  ,   !- - Upper Limit Value {BasedOnField A3}
  Continuous,   !- - Numeric Type
  activitylevel;   !- - Unit Type

ScheduleTypeLimits,
  TEMPERATURE 19,   !- name
  ,   !- - Lower Limit Value {BasedOnField A3}
  ,   !- - Upper Limit Value {BasedOnField A3}
  Continuous,   !- - Numeric Type
  temperature;   !- - Unit Type

ScheduleTypeLimits,
  TEMPERATURE 21,   !- name
  ,   !- - Lower Limit Value {BasedOnField A3}
  ,   !- - Upper Limit Value {BasedOnField A3}
  Continuous,   !- - Numeric Type
  temperature;   !- - Unit Type

ScheduleTypeLimits,
  TEMPERATURE 11,   !- name
  ,   !- - Lower Limit Value {BasedOnField A3}
  ,   !- - Upper Limit Value {BasedOnField A3}
  Continuous,   !- - Numeric Type
  temperature;   !- - Unit Type

ScheduleTypeLimits,
  TEMPERATURE 31,   !- name
  ,   !- - Lower Limit Value {BasedOnField A3}
  ,   !- - Upper Limit Value {BasedOnField A3}
  Continuous,   !- - Numeric Type
  temperature;   !- - Unit Type

ScheduleTypeLimits,
  TEMPERATURE 41,   !- name
  ,   !- - Lower Limit Value {BasedOnField A3}
  ,   !- - Upper Limit Value {BasedOnField A3}
  Continuous,   !- - Numeric Type
  temperature;   !- - Unit Type

ScheduleTypeLimits,
  TEMPERATURE 51,   !- name
  ,   !- - Lower Limit Value {BasedOnField A3}
  ,   !- - Upper Limit Value {BasedOnField A3}
  Continuous,   !- - Numeric Type
  temperature;   !- - Unit Type

ScheduleTypeLimits,
  ACTIVITYLEVEL 15,   !- name
  0,   !- - Lower Limit Value {BasedOnField A3}
  ,   !- - Upper Limit Value {BasedOnField A3}
  Continuous,   !- - Numeric Type
  activitylevel;   !- - Unit Type

ScheduleTypeLimits,
  TEMPERATURE 46,   !- name
  ,   !- - Lower Limit Value {BasedOnField A3}
  ,   !- - Upper Limit Value {BasedOnField A3}
  Continuous,   !- - Numeric Type
  temperature;   !- - Unit Type

ScheduleTypeLimits,
  TEMPERATURE 56,   !- name
  ,   !- - Lower Limit Value {BasedOnField A3}
  ,   !- - Upper Limit Value {BasedOnField A3}
  Continuous,   !- - Numeric Type
  temperature;   !- - Unit Type

ScheduleTypeLimits,
  TEMPERATURE 26,   !- name
  ,   !- - Lower Limit Value {BasedOnField A3}
  ,   !- - Upper Limit Value {BasedOnField A3}
  Continuous,   !- - Numeric Type
  temperature;   !- - Unit Type

ScheduleTypeLimits,
  TEMPERATURE 36,   !- name
  ,   !- - Lower Limit Value {BasedOnField A3}
  ,   !- - Upper Limit Value {BasedOnField A3}
  Continuous,   !- - Numeric Type
  temperature;   !- - Unit Type

ScheduleTypeLimits,
  ACTIVITYLEVEL 3,   !- name
  0,   !- - Lower Limit Value {BasedOnField A3}
  ,   !- - Upper Limit Value {BasedOnField A3}
  Continuous,   !- - Numeric Type
  activitylevel;   !- - Unit Type

ScheduleTypeLimits,
  TEMPERATURE 16,   !- name
  ,   !- - Lower Limit Value {BasedOnField A3}
  ,   !- - Upper Limit Value {BasedOnField A3}
  Continuous,   !- - Numeric Type
  temperature;   !- - Unit Type


GlobalGeometryRules,
	LowerLeftCorner,         !- Starting Vertex Position
	CounterClockWise,        !- Vertex Entry Direction
	Absolute;                !- Coordinate System

Zone,
	zone_0,
	0,	!-Direction of Relative North {deg}
	0.0,	!- X Origin {m}
	0.0,	!- Y Origin {m}
	0.0,	!- Z Origin {m}
	1;	!- Type

BuildingSurface:Detailed,
	zone_0_Srf_0,	!- Name
	WALL,	!- Surface Type
	Exterior Wall,	!- Construction Name
	zone_0,	!- Zone Name
	Outdoors,	!- Outside Boundary Condition
	,	!- Outside Boundary Condition Object
	SunExposed,	!- Sun Exposure
	WindExposed,	!- Wind Exposure
	autocalculate,	!- View Factor to Ground
	4,	!- Number of Vertices
	26.421091079711914,
	-3.5819106101989746,
	0.0,
	30.043474197387695,
	-3.5819106101989746,
	0.0,
	30.043474197387695,
	-3.5819106101989746,
	11.537866592407227,
	26.421091079711914,
	-3.5819106101989746,
	11.537866592407227;


FenestrationSurface:Detailed,
	zone_0_Srf_0_srfP_0,	!- Name
	WALL,	!- Surface Type
	Exterior Wall,	!- Construction Name
	zone_0,	!- Zone Name
	Outdoors,	!- Outside Boundary Condition
	,	!- Outside Boundary Condition Object
	SunExposed,	!- Sun Exposure
	WindExposed,	!- Wind Exposure
	autocalculate,	!- View Factor to Ground
	3,	!- Number of Vertices
	-62.4927,
	13.7995,
	7.28307,
	-63.6563,
	13.3032,
	0.0,
	-61.9536,
	14.0168,
	0.0;


FenestrationSurface:Detailed,
	zone_0_Srf_0_srfP_1,	!- Name
	WALL,	!- Surface Type
	Exterior Wall,	!- Construction Name
	zone_0,	!- Zone Name
	Outdoors,	!- Outside Boundary Condition
	,	!- Outside Boundary Condition Object
	SunExposed,	!- Sun Exposure
	WindExposed,	!- Wind Exposure
	autocalculate,	!- View Factor to Ground
	3,	!- Number of Vertices
	-61.3989,
	14.2317,
	8.37415,
	-61.9536,
	14.0168,
	0.0,
	-60.3657,
	14.6059,
	0.0;


FenestrationSurface:Detailed,
	zone_0_Srf_0_srfP_2,	!- Name
	WALL,	!- Surface Type
	Exterior Wall,	!- Construction Name
	zone_0,	!- Zone Name
	Outdoors,	!- Outside Boundary Condition
	,	!- Outside Boundary Condition Object
	SunExposed,	!- Sun Exposure
	WindExposed,	!- Wind Exposure
	autocalculate,	!- View Factor to Ground
	3,	!- Number of Vertices
	-58.5183,
	15.1797,
	12.0311,
	-58.8900,
	15.0750,
	0.0,
	-57.5238,
	15.4292,
	0.0;


FenestrationSurface:Detailed,
	zone_0_Srf_0_srfP_3,	!- Name
	WALL,	!- Surface Type
	Exterior Wall,	!- Construction Name
	zone_0,	!- Zone Name
	Outdoors,	!- Outside Boundary Condition
	,	!- Outside Boundary Condition Object
	SunExposed,	!- Sun Exposure
	WindExposed,	!- Wind Exposure
	autocalculate,	!- View Factor to Ground
	3,	!- Number of Vertices
	-56.2643,
	15.6737,
	0.0,
	-56.9142,
	15.5583,
	14.7689,
	-57.5238,
	15.4292,
	0.0;


FenestrationSurface:Detailed,
	zone_0_Srf_0_srfP_4,	!- Name
	WALL,	!- Surface Type
	Exterior Wall,	!- Construction Name
	zone_0,	!- Zone Name
	Outdoors,	!- Outside Boundary Condition
	,	!- Outside Boundary Condition Object
	SunExposed,	!- Sun Exposure
	WindExposed,	!- Wind Exposure
	autocalculate,	!- View Factor to Ground
	3,	!- Number of Vertices
	-57.6858,
	15.3918,
	13.3713,
	-58.5183,
	15.1797,
	12.0311,
	-57.5238,
	15.4292,
	0.0;


FenestrationSurface:Detailed,
	zone_0_Srf_0_srfP_5,	!- Name
	WALL,	!- Surface Type
	Exterior Wall,	!- Construction Name
	zone_0,	!- Zone Name
	Outdoors,	!- Outside Boundary Condition
	,	!- Outside Boundary Condition Object
	SunExposed,	!- Sun Exposure
	WindExposed,	!- Wind Exposure
	autocalculate,	!- View Factor to Ground
	3,	!- Number of Vertices
	-59.4134,
	14.9181,
	10.7502,
	-60.3657,
	14.6059,
	0.0,
	-58.8900,
	15.0750,
	0.0;


FenestrationSurface:Detailed,
	zone_0_Srf_0_srfP_6,	!- Name
	WALL,	!- Surface Type
	Exterior Wall,	!- Construction Name
	zone_0,	!- Zone Name
	Outdoors,	!- Outside Boundary Condition
	,	!- Outside Boundary Condition Object
	SunExposed,	!- Sun Exposure
	WindExposed,	!- Wind Exposure
	autocalculate,	!- View Factor to Ground
	3,	!- Number of Vertices
	-54.0520,
	15.8607,
	0.0,
	-54.9885,
	15.8246,
	19.1615,
	-55.1082,
	15.8151,
	0.0;


FenestrationSurface:Detailed,
	zone_0_Srf_0_srfP_7,	!- Name
	WALL,	!- Surface Type
	Exterior Wall,	!- Construction Name
	zone_0,	!- Zone Name
	Outdoors,	!- Outside Boundary Condition
	,	!- Outside Boundary Condition Object
	SunExposed,	!- Sun Exposure
	WindExposed,	!- Wind Exposure
	autocalculate,	!- View Factor to Ground
	3,	!- Number of Vertices
	-52.2245,
	15.6927,
	0.0,
	-52.7613,
	15.7808,
	26.8128,
	-53.0922,
	15.8177,
	0.0;


FenestrationSurface:Detailed,
	zone_0_Srf_0_srfP_8,	!- Name
	WALL,	!- Surface Type
	Exterior Wall,	!- Construction Name
	zone_0,	!- Zone Name
	Outdoors,	!- Outside Boundary Condition
	,	!- Outside Boundary Condition Object
	SunExposed,	!- Sun Exposure
	WindExposed,	!- Wind Exposure
	autocalculate,	!- View Factor to Ground
	3,	!- Number of Vertices
	-53.0922,
	15.8177,
	0.0,
	-53.5565,
	15.8497,
	23.7240,
	-54.0520,
	15.8607,
	0.0;


FenestrationSurface:Detailed,
	zone_0_Srf_0_srfP_9,	!- Name
	WALL,	!- Surface Type
	Exterior Wall,	!- Construction Name
	zone_0,	!- Zone Name
	Outdoors,	!- Outside Boundary Condition
	,	!- Outside Boundary Condition Object
	SunExposed,	!- Sun Exposure
	WindExposed,	!- Wind Exposure
	autocalculate,	!- View Factor to Ground
	3,	!- Number of Vertices
	-50.7321,
	15.2171,
	0.0,
	-51.0286,
	15.3436,
	27.8579,
	-51.4408,
	15.4910,
	0.0;


FenestrationSurface:Detailed,
	zone_0_Srf_0_srfP_10,	!- Name
	WALL,	!- Surface Type
	Exterior Wall,	!- Construction Name
	zone_0,	!- Zone Name
	Outdoors,	!- Outside Boundary Condition
	,	!- Outside Boundary Condition Object
	SunExposed,	!- Sun Exposure
	WindExposed,	!- Wind Exposure
	autocalculate,	!- View Factor to Ground
	3,	!- Number of Vertices
	-49.5043,
	14.4712,
	0.0,
	-49.8712,
	14.7366,
	23.8963,
	-50.0894,
	14.8759,
	0.0;


FenestrationSurface:Detailed,
	zone_0_Srf_0_srfP_11,	!- Name
	WALL,	!- Surface Type
	Exterior Wall,	!- Construction Name
	zone_0,	!- Zone Name
	Outdoors,	!- Outside Boundary Condition
	,	!- Outside Boundary Condition Object
	SunExposed,	!- Sun Exposure
	WindExposed,	!- Wind Exposure
	autocalculate,	!- View Factor to Ground
	3,	!- Number of Vertices
	-50.0894,
	14.8759,
	0.0,
	-50.3538,
	15.0282,
	25.6260,
	-50.7321,
	15.2171,
	0.0;


FenestrationSurface:Detailed,
	zone_0_Srf_0_srfP_12,	!- Name
	WALL,	!- Surface Type
	Exterior Wall,	!- Construction Name
	zone_0,	!- Zone Name
	Outdoors,	!- Outside Boundary Condition
	,	!- Outside Boundary Condition Object
	SunExposed,	!- Sun Exposure
	WindExposed,	!- Wind Exposure
	autocalculate,	!- View Factor to Ground
	3,	!- Number of Vertices
	-51.4408,
	15.4910,
	0.0,
	-51.8295,
	15.6029,
	29.0312,
	-52.2245,
	15.6927,
	0.0;


FenestrationSurface:Detailed,
	zone_0_Srf_0_srfP_13,	!- Name
	WALL,	!- Surface Type
	Exterior Wall,	!- Construction Name
	zone_0,	!- Zone Name
	Outdoors,	!- Outside Boundary Condition
	,	!- Outside Boundary Condition Object
	SunExposed,	!- Sun Exposure
	WindExposed,	!- Wind Exposure
	autocalculate,	!- View Factor to Ground
	3,	!- Number of Vertices
	-55.1082,
	15.8151,
	0.0,
	-55.5650,
	15.7697,
	17.6801,
	-56.2643,
	15.6737,
	0.0;


FenestrationSurface:Detailed,
	zone_0_Srf_0_srfP_14,	!- Name
	WALL,	!- Surface Type
	Exterior Wall,	!- Construction Name
	zone_0,	!- Zone Name
	Outdoors,	!- Outside Boundary Condition
	,	!- Outside Boundary Condition Object
	SunExposed,	!- Sun Exposure
	WindExposed,	!- Wind Exposure
	autocalculate,	!- View Factor to Ground
	3,	!- Number of Vertices
	-63.6563,
	13.3032,
	6.25931,
	-63.6563,
	13.3032,
	0.0,
	-62.4927,
	13.7995,
	7.28307;


FenestrationSurface:Detailed,
	zone_0_Srf_0_srfP_15,	!- Name
	WALL,	!- Surface Type
	Exterior Wall,	!- Construction Name
	zone_0,	!- Zone Name
	Outdoors,	!- Outside Boundary Condition
	,	!- Outside Boundary Condition Object
	SunExposed,	!- Sun Exposure
	WindExposed,	!- Wind Exposure
	autocalculate,	!- View Factor to Ground
	3,	!- Number of Vertices
	-48.9714,
	14.0036,
	0.0,
	-49.1918,
	14.2100,
	21.6193,
	-49.5043,
	14.4712,
	0.0;


FenestrationSurface:Detailed,
	zone_0_Srf_0_srfP_16,	!- Name
	WALL,	!- Surface Type
	Exterior Wall,	!- Construction Name
	zone_0,	!- Zone Name
	Outdoors,	!- Outside Boundary Condition
	,	!- Outside Boundary Condition Object
	SunExposed,	!- Sun Exposure
	WindExposed,	!- Wind Exposure
	autocalculate,	!- View Factor to Ground
	3,	!- Number of Vertices
	-62.4927,
	13.7995,
	7.28307,
	-61.9536,
	14.0168,
	0.0,
	-61.3989,
	14.2317,
	8.37415;


FenestrationSurface:Detailed,
	zone_0_Srf_0_srfP_17,	!- Name
	WALL,	!- Surface Type
	Exterior Wall,	!- Construction Name
	zone_0,	!- Zone Name
	Outdoors,	!- Outside Boundary Condition
	,	!- Outside Boundary Condition Object
	SunExposed,	!- Sun Exposure
	WindExposed,	!- Wind Exposure
	autocalculate,	!- View Factor to Ground
	3,	!- Number of Vertices
	-60.3730,
	14.6033,
	9.53052,
	-61.3989,
	14.2317,
	8.37415,
	-60.3657,
	14.6059,
	0.0;


FenestrationSurface:Detailed,
	zone_0_Srf_0_srfP_18,	!- Name
	WALL,	!- Surface Type
	Exterior Wall,	!- Construction Name
	zone_0,	!- Zone Name
	Outdoors,	!- Outside Boundary Condition
	,	!- Outside Boundary Condition Object
	SunExposed,	!- Sun Exposure
	WindExposed,	!- Wind Exposure
	autocalculate,	!- View Factor to Ground
	3,	!- Number of Vertices
	-58.5183,
	15.1797,
	12.0311,
	-59.4134,
	14.9181,
	10.7502,
	-58.8900,
	15.0750,
	0.0;


FenestrationSurface:Detailed,
	zone_0_Srf_0_srfP_19,	!- Name
	WALL,	!- Surface Type
	Exterior Wall,	!- Construction Name
	zone_0,	!- Zone Name
	Outdoors,	!- Outside Boundary Condition
	,	!- Outside Boundary Condition Object
	SunExposed,	!- Sun Exposure
	WindExposed,	!- Wind Exposure
	autocalculate,	!- View Factor to Ground
	3,	!- Number of Vertices
	-60.3730,
	14.6033,
	9.53052,
	-60.3657,
	14.6059,
	0.0,
	-59.4134,
	14.9181,
	10.7502;


FenestrationSurface:Detailed,
	zone_0_Srf_0_srfP_20,	!- Name
	WALL,	!- Surface Type
	Exterior Wall,	!- Construction Name
	zone_0,	!- Zone Name
	Outdoors,	!- Outside Boundary Condition
	,	!- Outside Boundary Condition Object
	SunExposed,	!- Sun Exposure
	WindExposed,	!- Wind Exposure
	autocalculate,	!- View Factor to Ground
	3,	!- Number of Vertices
	-48.4860,
	13.4731,
	0.0,
	-48.8257,
	13.8560,
	20.5138,
	-48.9714,
	14.0036,
	0.0;


FenestrationSurface:Detailed,
	zone_0_Srf_0_srfP_21,	!- Name
	WALL,	!- Surface Type
	Exterior Wall,	!- Construction Name
	zone_0,	!- Zone Name
	Outdoors,	!- Outside Boundary Condition
	,	!- Outside Boundary Condition Object
	SunExposed,	!- Sun Exposure
	WindExposed,	!- Wind Exposure
	autocalculate,	!- View Factor to Ground
	3,	!- Number of Vertices
	-47.2708,
	11.5071,
	0.0,
	-47.7235,
	12.3706,
	17.7505,
	-48.0431,
	12.8793,
	0.0;


FenestrationSurface:Detailed,
	zone_0_Srf_0_srfP_22,	!- Name
	WALL,	!- Surface Type
	Exterior Wall,	!- Construction Name
	zone_0,	!- Zone Name
	Outdoors,	!- Outside Boundary Condition
	,	!- Outside Boundary Condition Object
	SunExposed,	!- Sun Exposure
	WindExposed,	!- Wind Exposure
	autocalculate,	!- View Factor to Ground
	3,	!- Number of Vertices
	-46.1322,
	8.13444,
	0.0,
	-46.3048,
	8.80764,
	15.2825,
	-46.6384,
	9.91412,
	0.0;


FenestrationSurface:Detailed,
	zone_0_Srf_0_srfP_23,	!- Name
	WALL,	!- Surface Type
	Exterior Wall,	!- Construction Name
	zone_0,	!- Zone Name
	Outdoors,	!- Outside Boundary Condition
	,	!- Outside Boundary Condition Object
	SunExposed,	!- Sun Exposure
	WindExposed,	!- Wind Exposure
	autocalculate,	!- View Factor to Ground
	3,	!- Number of Vertices
	-46.6384,
	9.91412,
	0.0,
	-46.8135,